ml_pose_23
  PandaDock generated structure

 13 13  0  0  0  0  0  0  0  0999 V2000
  -16.8489  -18.7481    9.4199 O   0  0  0  0  0  0  0  0  0  0  0  0
  -16.0298  -18.0180    8.5669 C   0  0  0  0  0  0  0  0  0  0  0  0
  -14.8347  -17.6504    8.9631 C   0  0  0  0  0  0  0  0  0  0  0  0
  -16.4919  -17.6647    7.2676 C   0  0  0  0  0  0  0  0  0  0  0  0
  -13.9923  -16.7798    8.0968 C   0  0  0  0  0  0  0  0  0  0  0  0
  -14.2871  -17.9475   10.3417 C   0  0  0  0  0  0  0  0  0  0  0  0
  -14.5004  -16.4801    6.9004 C   0  0  0  0  0  0  0  0  0  0  0  0
  -15.7616  -16.9487    6.4102 C   0  0  0  0  0  0  0  0  0  0  0  0
  -17.8835  -18.1403    6.7920 C   0  0  0  0  0  0  0  0  0  0  0  0
  -13.2813  -19.1069   10.3567 C   0  0  0  0  0  0  0  0  0  0  0  0
  -13.6236  -16.7380   11.0389 C   0  0  0  0  0  0  0  0  0  0  0  0
  -18.8854  -17.0599    6.7625 C   0  0  0  0  0  0  0  0  0  0  0  0
  -17.6797  -18.8176    5.4233 C   0  0  0  0  0  0  0  0  0  0  0  0
  1  2  1  0  0  0  0
  2  3  1  0  0  0  0
  2  4  1  0  0  0  0
  3  5  1  0  0  0  0
  3  6  1  0  0  0  0
  4  8  1  0  0  0  0
  4  9  1  0  0  0  0
  5  7  1  0  0  0  0
  6 10  1  0  0  0  0
  6 11  1  0  0  0  0
  7  8  1  0  0  0  0
  9 12  1  0  0  0  0
  9 13  1  0  0  0  0
M  END
>  <Score>
0.131099

>  <Energy>
-6.465031

>  <Confidence>
0.868901

>  <Binding_Affinity>
-11.878026

>  <IC50_nM>
2.0

$$$$
ml_pose_28
  PandaDock generated structure

 13 13  0  0  0  0  0  0  0  0999 V2000
  -15.4051  -19.2702    9.2410 O   0  0  0  0  0  0  0  0  0  0  0  0
  -15.6338  -18.2077    8.4200 C   0  0  0  0  0  0  0  0  0  0  0  0
  -16.8194  -17.9596    7.8052 C   0  0  0  0  0  0  0  0  0  0  0  0
  -14.7125  -17.1061    8.5094 C   0  0  0  0  0  0  0  0  0  0  0  0
  -16.9252  -16.9690    6.8229 C   0  0  0  0  0  0  0  0  0  0  0  0
  -17.8435  -19.2651    7.8345 C   0  0  0  0  0  0  0  0  0  0  0  0
  -15.9887  -15.9839    6.9330 C   0  0  0  0  0  0  0  0  0  0  0  0
  -14.8922  -16.0333    7.7596 C   0  0  0  0  0  0  0  0  0  0  0  0
  -13.4609  -17.2508    9.3672 C   0  0  0  0  0  0  0  0  0  0  0  0
  -18.9719  -18.9427    8.6039 C   0  0  0  0  0  0  0  0  0  0  0  0
  -18.1794  -19.6285    6.2637 C   0  0  0  0  0  0  0  0  0  0  0  0
  -12.0878  -17.5172    8.5995 C   0  0  0  0  0  0  0  0  0  0  0  0
  -13.1795  -15.9657   10.1802 C   0  0  0  0  0  0  0  0  0  0  0  0
  1  2  1  0  0  0  0
  2  3  1  0  0  0  0
  2  4  1  0  0  0  0
  3  5  1  0  0  0  0
  3  6  1  0  0  0  0
  4  8  1  0  0  0  0
  4  9  1  0  0  0  0
  5  7  1  0  0  0  0
  6 10  1  0  0  0  0
  6 11  1  0  0  0  0
  7  8  1  0  0  0  0
  9 12  1  0  0  0  0
  9 13  1  0  0  0  0
M  END
>  <Score>
0.185000

>  <Energy>
-6.786231

>  <Confidence>
0.815000

>  <Binding_Affinity>
-10.800001

>  <IC50_nM>
12.1

$$$$
ml_pose_3
  PandaDock generated structure

 13 13  0  0  0  0  0  0  0  0999 V2000
  -17.5161  -17.0161    7.8288 O   0  0  0  0  0  0  0  0  0  0  0  0
  -16.1955  -17.4590    8.0844 C   0  0  0  0  0  0  0  0  0  0  0  0
  -16.0113  -18.8127    8.3723 C   0  0  0  0  0  0  0  0  0  0  0  0
  -15.2876  -16.6307    8.0695 C   0  0  0  0  0  0  0  0  0  0  0  0
  -14.7842  -19.2412    8.7115 C   0  0  0  0  0  0  0  0  0  0  0  0
  -17.2222  -19.7764    8.3977 C   0  0  0  0  0  0  0  0  0  0  0  0
  -13.7807  -18.4335    8.5424 C   0  0  0  0  0  0  0  0  0  0  0  0
  -13.8868  -17.0687    8.2873 C   0  0  0  0  0  0  0  0  0  0  0  0
  -15.4021  -15.1807    7.6867 C   0  0  0  0  0  0  0  0  0  0  0  0
  -17.2922  -20.5515    7.1178 C   0  0  0  0  0  0  0  0  0  0  0  0
  -17.2057  -20.7168    9.6632 C   0  0  0  0  0  0  0  0  0  0  0  0
  -15.1301  -14.3602    8.9673 C   0  0  0  0  0  0  0  0  0  0  0  0
  -14.3855  -14.8525    6.6110 C   0  0  0  0  0  0  0  0  0  0  0  0
  1  2  1  0  0  0  0
  2  3  1  0  0  0  0
  2  4  1  0  0  0  0
  3  5  1  0  0  0  0
  3  6  1  0  0  0  0
  4  8  1  0  0  0  0
  4  9  1  0  0  0  0
  5  7  1  0  0  0  0
  6 10  1  0  0  0  0
  6 11  1  0  0  0  0
  7  8  1  0  0  0  0
  9 12  1  0  0  0  0
  9 13  1  0  0  0  0
M  END
>  <Score>
0.205561

>  <Energy>
-5.756094

>  <Confidence>
0.794439

>  <Binding_Affinity>
-10.388776

>  <IC50_nM>
24.2

$$$$
ml_pose_26
  PandaDock generated structure

 13 13  0  0  0  0  0  0  0  0999 V2000
  -15.2046  -16.6316    6.6470 O   0  0  0  0  0  0  0  0  0  0  0  0
  -15.5308  -17.3771    7.6639 C   0  0  0  0  0  0  0  0  0  0  0  0
  -15.2314  -16.8883    8.9277 C   0  0  0  0  0  0  0  0  0  0  0  0
  -16.1082  -18.5750    7.5426 C   0  0  0  0  0  0  0  0  0  0  0  0
  -15.5565  -17.6657   10.1353 C   0  0  0  0  0  0  0  0  0  0  0  0
  -14.6128  -15.6312    9.2154 C   0  0  0  0  0  0  0  0  0  0  0  0
  -16.3022  -19.0288    9.8331 C   0  0  0  0  0  0  0  0  0  0  0  0
  -16.4903  -19.3748    8.6434 C   0  0  0  0  0  0  0  0  0  0  0  0
  -16.4706  -19.0785    6.1610 C   0  0  0  0  0  0  0  0  0  0  0  0
  -15.5740  -14.4924    9.5467 C   0  0  0  0  0  0  0  0  0  0  0  0
  -13.5402  -15.6372   10.3561 C   0  0  0  0  0  0  0  0  0  0  0  0
  -15.5853  -20.2099    5.6332 C   0  0  0  0  0  0  0  0  0  0  0  0
  -17.8930  -19.5093    6.0346 C   0  0  0  0  0  0  0  0  0  0  0  0
  1  2  1  0  0  0  0
  2  3  1  0  0  0  0
  2  4  1  0  0  0  0
  3  5  1  0  0  0  0
  3  6  1  0  0  0  0
  4  8  1  0  0  0  0
  4  9  1  0  0  0  0
  5  7  1  0  0  0  0
  6 10  1  0  0  0  0
  6 11  1  0  0  0  0
  7  8  1  0  0  0  0
  9 12  1  0  0  0  0
  9 13  1  0  0  0  0
M  END
>  <Score>
0.215503

>  <Energy>
-6.143357

>  <Confidence>
0.784497

>  <Binding_Affinity>
-10.189942

>  <IC50_nM>
33.9

$$$$
ml_pose_29
  PandaDock generated structure

 13 13  0  0  0  0  0  0  0  0999 V2000
  -14.5847  -18.9517    9.1249 O   0  0  0  0  0  0  0  0  0  0  0  0
  -15.3528  -18.0525    8.4822 C   0  0  0  0  0  0  0  0  0  0  0  0
  -16.5599  -18.5705    7.8034 C   0  0  0  0  0  0  0  0  0  0  0  0
  -14.9692  -16.8387    8.2182 C   0  0  0  0  0  0  0  0  0  0  0  0
  -17.3282  -17.6358    7.2956 C   0  0  0  0  0  0  0  0  0  0  0  0
  -17.0076  -19.9162    8.0892 C   0  0  0  0  0  0  0  0  0  0  0  0
  -16.8845  -16.2909    7.0742 C   0  0  0  0  0  0  0  0  0  0  0  0
  -15.7413  -15.8666    7.6559 C   0  0  0  0  0  0  0  0  0  0  0  0
  -13.6754  -16.2888    8.9941 C   0  0  0  0  0  0  0  0  0  0  0  0
  -18.0757  -20.0741    9.1685 C   0  0  0  0  0  0  0  0  0  0  0  0
  -17.6087  -20.4398    6.7912 C   0  0  0  0  0  0  0  0  0  0  0  0
  -12.5244  -16.0943    7.8584 C   0  0  0  0  0  0  0  0  0  0  0  0
  -13.7878  -15.0802    9.7842 C   0  0  0  0  0  0  0  0  0  0  0  0
  1  2  1  0  0  0  0
  2  3  1  0  0  0  0
  2  4  1  0  0  0  0
  3  5  1  0  0  0  0
  3  6  1  0  0  0  0
  4  8  1  0  0  0  0
  4  9  1  0  0  0  0
  5  7  1  0  0  0  0
  6 10  1  0  0  0  0
  6 11  1  0  0  0  0
  7  8  1  0  0  0  0
  9 12  1  0  0  0  0
  9 13  1  0  0  0  0
M  END
>  <Score>
0.216000

>  <Energy>
-5.281253

>  <Confidence>
0.784000

>  <Binding_Affinity>
-10.179999

>  <IC50_nM>
34.5

$$$$
ml_pose_18
  PandaDock generated structure

 13 13  0  0  0  0  0  0  0  0999 V2000
  -16.2029  -16.2482    6.8201 O   0  0  0  0  0  0  0  0  0  0  0  0
  -15.9304  -17.3213    7.7816 C   0  0  0  0  0  0  0  0  0  0  0  0
  -16.5104  -17.4586    9.0245 C   0  0  0  0  0  0  0  0  0  0  0  0
  -14.8217  -18.1090    7.5245 C   0  0  0  0  0  0  0  0  0  0  0  0
  -16.1700  -18.3649    9.9350 C   0  0  0  0  0  0  0  0  0  0  0  0
  -17.6149  -16.4248    9.3565 C   0  0  0  0  0  0  0  0  0  0  0  0
  -15.1024  -19.1925    9.7274 C   0  0  0  0  0  0  0  0  0  0  0  0
  -14.3014  -19.1597    8.2991 C   0  0  0  0  0  0  0  0  0  0  0  0
  -14.0777  -17.9559    6.2059 C   0  0  0  0  0  0  0  0  0  0  0  0
  -19.0661  -17.1054    9.0644 C   0  0  0  0  0  0  0  0  0  0  0  0
  -17.7157  -15.9916   10.7950 C   0  0  0  0  0  0  0  0  0  0  0  0
  -12.5850  -17.4011    6.3973 C   0  0  0  0  0  0  0  0  0  0  0  0
  -14.0015  -19.3670    5.4087 C   0  0  0  0  0  0  0  0  0  0  0  0
  1  2  1  0  0  0  0
  2  3  1  0  0  0  0
  2  4  1  0  0  0  0
  3  5  1  0  0  0  0
  3  6  1  0  0  0  0
  4  8  1  0  0  0  0
  4  9  1  0  0  0  0
  5  7  1  0  0  0  0
  6 10  1  0  0  0  0
  6 11  1  0  0  0  0
  7  8  1  0  0  0  0
  9 12  1  0  0  0  0
  9 13  1  0  0  0  0
M  END
>  <Score>
0.222678

>  <Energy>
-7.263504

>  <Confidence>
0.777322

>  <Binding_Affinity>
-10.046446

>  <IC50_nM>
43.2

$$$$
ml_pose_0
  PandaDock generated structure

 13 13  0  0  0  0  0  0  0  0999 V2000
  -16.8791  -16.8619    9.5926 O   0  0  0  0  0  0  0  0  0  0  0  0
  -16.0213  -17.4339    8.5769 C   0  0  0  0  0  0  0  0  0  0  0  0
  -16.4860  -17.5033    7.2259 C   0  0  0  0  0  0  0  0  0  0  0  0
  -14.8584  -17.8236    8.9871 C   0  0  0  0  0  0  0  0  0  0  0  0
  -15.6543  -18.2340    6.3413 C   0  0  0  0  0  0  0  0  0  0  0  0
  -17.8743  -17.1265    6.8961 C   0  0  0  0  0  0  0  0  0  0  0  0
  -14.4348  -18.6962    6.7615 C   0  0  0  0  0  0  0  0  0  0  0  0
  -14.0307  -18.5943    7.8987 C   0  0  0  0  0  0  0  0  0  0  0  0
  -14.3952  -17.7598   10.3357 C   0  0  0  0  0  0  0  0  0  0  0  0
  -17.7387  -15.6819    6.2265 C   0  0  0  0  0  0  0  0  0  0  0  0
  -18.5236  -18.1669    5.9699 C   0  0  0  0  0  0  0  0  0  0  0  0
  -14.3020  -19.1007   11.1424 C   0  0  0  0  0  0  0  0  0  0  0  0
  -12.9018  -17.1169   10.3856 C   0  0  0  0  0  0  0  0  0  0  0  0
  1  2  1  0  0  0  0
  2  3  1  0  0  0  0
  2  4  1  0  0  0  0
  3  5  1  0  0  0  0
  3  6  1  0  0  0  0
  4  8  1  0  0  0  0
  4  9  1  0  0  0  0
  5  7  1  0  0  0  0
  6 10  1  0  0  0  0
  6 11  1  0  0  0  0
  7  8  1  0  0  0  0
  9 12  1  0  0  0  0
  9 13  1  0  0  0  0
M  END
>  <Score>
0.231313

>  <Energy>
-5.918028

>  <Confidence>
0.768687

>  <Binding_Affinity>
-9.873745

>  <IC50_nM>
57.8

$$$$
ml_pose_5
  PandaDock generated structure

 13 13  0  0  0  0  0  0  0  0999 V2000
  -16.9476  -17.7159    9.7413 O   0  0  0  0  0  0  0  0  0  0  0  0
  -16.0707  -17.6696    8.6447 C   0  0  0  0  0  0  0  0  0  0  0  0
  -16.2924  -18.4567    7.4383 C   0  0  0  0  0  0  0  0  0  0  0  0
  -14.9900  -16.9205    8.5883 C   0  0  0  0  0  0  0  0  0  0  0  0
  -15.4191  -18.4823    6.4664 C   0  0  0  0  0  0  0  0  0  0  0  0
  -17.6726  -19.4234    7.4025 C   0  0  0  0  0  0  0  0  0  0  0  0
  -14.2590  -17.6835    6.5106 C   0  0  0  0  0  0  0  0  0  0  0  0
  -14.0307  -16.9040    7.6671 C   0  0  0  0  0  0  0  0  0  0  0  0
  -14.6868  -16.1201    9.9697 C   0  0  0  0  0  0  0  0  0  0  0  0
  -18.6499  -18.5880    6.6527 C   0  0  0  0  0  0  0  0  0  0  0  0
  -17.1745  -20.6533    6.9175 C   0  0  0  0  0  0  0  0  0  0  0  0
  -13.6014  -16.7611   10.8282 C   0  0  0  0  0  0  0  0  0  0  0  0
  -14.3054  -14.7216    9.5126 C   0  0  0  0  0  0  0  0  0  0  0  0
  1  2  1  0  0  0  0
  2  3  1  0  0  0  0
  2  4  1  0  0  0  0
  3  5  1  0  0  0  0
  3  6  1  0  0  0  0
  4  8  1  0  0  0  0
  4  9  1  0  0  0  0
  5  7  1  0  0  0  0
  6 10  1  0  0  0  0
  6 11  1  0  0  0  0
  7  8  1  0  0  0  0
  9 12  1  0  0  0  0
  9 13  1  0  0  0  0
M  END
>  <Score>
0.274708

>  <Energy>
-6.066333

>  <Confidence>
0.725292

>  <Binding_Affinity>
-9.005840

>  <IC50_nM>
250.0

$$$$
ml_pose_20
  PandaDock generated structure

 13 13  0  0  0  0  0  0  0  0999 V2000
  -13.7763  -18.1751    8.0814 O   0  0  0  0  0  0  0  0  0  0  0  0
  -15.1761  -17.8774    8.1132 C   0  0  0  0  0  0  0  0  0  0  0  0
  -15.6431  -16.9140    9.0757 C   0  0  0  0  0  0  0  0  0  0  0  0
  -15.9725  -18.5551    7.3701 C   0  0  0  0  0  0  0  0  0  0  0  0
  -16.9217  -16.4366    9.0352 C   0  0  0  0  0  0  0  0  0  0  0  0
  -14.5657  -16.1022    9.9106 C   0  0  0  0  0  0  0  0  0  0  0  0
  -17.7233  -17.1589    8.1491 C   0  0  0  0  0  0  0  0  0  0  0  0
  -17.3573  -18.1210    7.4161 C   0  0  0  0  0  0  0  0  0  0  0  0
  -15.5654  -19.6559    6.4139 C   0  0  0  0  0  0  0  0  0  0  0  0
  -14.1373  -14.8929    9.3729 C   0  0  0  0  0  0  0  0  0  0  0  0
  -15.1508  -15.9329   11.3419 C   0  0  0  0  0  0  0  0  0  0  0  0
  -16.0733  -20.9458    7.0238 C   0  0  0  0  0  0  0  0  0  0  0  0
  -16.0372  -19.3323    5.0360 C   0  0  0  0  0  0  0  0  0  0  0  0
  1  2  1  0  0  0  0
  2  3  1  0  0  0  0
  2  4  1  0  0  0  0
  3  5  1  0  0  0  0
  3  6  1  0  0  0  0
  4  8  1  0  0  0  0
  4  9  1  0  0  0  0
  5  7  1  0  0  0  0
  6 10  1  0  0  0  0
  6 11  1  0  0  0  0
  7  8  1  0  0  0  0
  9 12  1  0  0  0  0
  9 13  1  0  0  0  0
M  END
>  <Score>
0.282048

>  <Energy>
-6.843126

>  <Confidence>
0.717952

>  <Binding_Affinity>
-8.859045

>  <IC50_nM>
320.3

$$$$
ml_pose_7
  PandaDock generated structure

 13 13  0  0  0  0  0  0  0  0999 V2000
  -16.5555  -16.1908    9.0663 O   0  0  0  0  0  0  0  0  0  0  0  0
  -15.9074  -17.1196    8.4186 C   0  0  0  0  0  0  0  0  0  0  0  0
  -15.3827  -18.2249    9.2345 C   0  0  0  0  0  0  0  0  0  0  0  0
  -15.9118  -17.2249    7.0805 C   0  0  0  0  0  0  0  0  0  0  0  0
  -14.8222  -19.4155    8.5633 C   0  0  0  0  0  0  0  0  0  0  0  0
  -15.4823  -18.2663   10.7237 C   0  0  0  0  0  0  0  0  0  0  0  0
  -14.7704  -19.3945    7.1376 C   0  0  0  0  0  0  0  0  0  0  0  0
  -15.3381  -18.2824    6.5124 C   0  0  0  0  0  0  0  0  0  0  0  0
  -16.3876  -16.2096    6.1940 C   0  0  0  0  0  0  0  0  0  0  0  0
  -16.6480  -19.1002   11.2324 C   0  0  0  0  0  0  0  0  0  0  0  0
  -14.2587  -18.7601   11.3074 C   0  0  0  0  0  0  0  0  0  0  0  0
  -15.2658  -15.2428    5.7007 C   0  0  0  0  0  0  0  0  0  0  0  0
  -17.3695  -16.6684    5.1684 C   0  0  0  0  0  0  0  0  0  0  0  0
  1  2  1  0  0  0  0
  2  3  1  0  0  0  0
  2  4  1  0  0  0  0
  3  5  1  0  0  0  0
  3  6  1  0  0  0  0
  4  8  1  0  0  0  0
  4  9  1  0  0  0  0
  5  7  1  0  0  0  0
  6 10  1  0  0  0  0
  6 11  1  0  0  0  0
  7  8  1  0  0  0  0
  9 12  1  0  0  0  0
  9 13  1  0  0  0  0
M  END
>  <Score>
0.288917

>  <Energy>
-8.732451

>  <Confidence>
0.711083

>  <Binding_Affinity>
-8.721670

>  <IC50_nM>
403.9

$$$$
