ml_pose_26
  PandaDock generated structure

 13 13  0  0  0  0  0  0  0  0999 V2000
  -15.2046  -16.6316    6.6470 O   0  0  0  0  0  0  0  0  0  0  0  0
  -15.5308  -17.3771    7.6639 C   0  0  0  0  0  0  0  0  0  0  0  0
  -15.2314  -16.8883    8.9277 C   0  0  0  0  0  0  0  0  0  0  0  0
  -16.1082  -18.5750    7.5426 C   0  0  0  0  0  0  0  0  0  0  0  0
  -15.5565  -17.6657   10.1353 C   0  0  0  0  0  0  0  0  0  0  0  0
  -14.6128  -15.6312    9.2154 C   0  0  0  0  0  0  0  0  0  0  0  0
  -16.3022  -19.0288    9.8331 C   0  0  0  0  0  0  0  0  0  0  0  0
  -16.4903  -19.3748    8.6434 C   0  0  0  0  0  0  0  0  0  0  0  0
  -16.4706  -19.0785    6.1610 C   0  0  0  0  0  0  0  0  0  0  0  0
  -15.5740  -14.4924    9.5467 C   0  0  0  0  0  0  0  0  0  0  0  0
  -13.5402  -15.6372   10.3561 C   0  0  0  0  0  0  0  0  0  0  0  0
  -15.5853  -20.2099    5.6332 C   0  0  0  0  0  0  0  0  0  0  0  0
  -17.8930  -19.5093    6.0346 C   0  0  0  0  0  0  0  0  0  0  0  0
  1  2  1  0  0  0  0
  2  3  1  0  0  0  0
  2  4  1  0  0  0  0
  3  5  1  0  0  0  0
  3  6  1  0  0  0  0
  4  8  1  0  0  0  0
  4  9  1  0  0  0  0
  5  7  1  0  0  0  0
  6 10  1  0  0  0  0
  6 11  1  0  0  0  0
  7  8  1  0  0  0  0
  9 12  1  0  0  0  0
  9 13  1  0  0  0  0
M  END
>  <Score>
0.215503

>  <Energy>
-6.143357

>  <Confidence>
0.784497

>  <Binding_Affinity>
-10.189942

>  <IC50_nM>
33.9

$$$$
