ml_pose_29
  PandaDock generated structure

 13 13  0  0  0  0  0  0  0  0999 V2000
  -14.5847  -18.9517    9.1249 O   0  0  0  0  0  0  0  0  0  0  0  0
  -15.3528  -18.0525    8.4822 C   0  0  0  0  0  0  0  0  0  0  0  0
  -16.5599  -18.5705    7.8034 C   0  0  0  0  0  0  0  0  0  0  0  0
  -14.9692  -16.8387    8.2182 C   0  0  0  0  0  0  0  0  0  0  0  0
  -17.3282  -17.6358    7.2956 C   0  0  0  0  0  0  0  0  0  0  0  0
  -17.0076  -19.9162    8.0892 C   0  0  0  0  0  0  0  0  0  0  0  0
  -16.8845  -16.2909    7.0742 C   0  0  0  0  0  0  0  0  0  0  0  0
  -15.7413  -15.8666    7.6559 C   0  0  0  0  0  0  0  0  0  0  0  0
  -13.6754  -16.2888    8.9941 C   0  0  0  0  0  0  0  0  0  0  0  0
  -18.0757  -20.0741    9.1685 C   0  0  0  0  0  0  0  0  0  0  0  0
  -17.6087  -20.4398    6.7912 C   0  0  0  0  0  0  0  0  0  0  0  0
  -12.5244  -16.0943    7.8584 C   0  0  0  0  0  0  0  0  0  0  0  0
  -13.7878  -15.0802    9.7842 C   0  0  0  0  0  0  0  0  0  0  0  0
  1  2  1  0  0  0  0
  2  3  1  0  0  0  0
  2  4  1  0  0  0  0
  3  5  1  0  0  0  0
  3  6  1  0  0  0  0
  4  8  1  0  0  0  0
  4  9  1  0  0  0  0
  5  7  1  0  0  0  0
  6 10  1  0  0  0  0
  6 11  1  0  0  0  0
  7  8  1  0  0  0  0
  9 12  1  0  0  0  0
  9 13  1  0  0  0  0
M  END
>  <Score>
0.216000

>  <Energy>
-5.281253

>  <Confidence>
0.784000

>  <Binding_Affinity>
-10.179999

>  <IC50_nM>
34.5

$$$$
