ml_pose_6
  PandaDock generated structure

 13 13  0  0  0  0  0  0  0  0999 V2000
  -15.1572  -18.8308    9.6661 O   0  0  0  0  0  0  0  0  0  0  0  0
  -15.4948  -18.0534    8.6440 C   0  0  0  0  0  0  0  0  0  0  0  0
  -15.2622  -18.5066    7.3125 C   0  0  0  0  0  0  0  0  0  0  0  0
  -16.1339  -16.8497    8.8572 C   0  0  0  0  0  0  0  0  0  0  0  0
  -15.5445  -17.5547    6.3062 C   0  0  0  0  0  0  0  0  0  0  0  0
  -14.4728  -19.6628    7.0334 C   0  0  0  0  0  0  0  0  0  0  0  0
  -16.2694  -16.4254    6.5544 C   0  0  0  0  0  0  0  0  0  0  0  0
  -16.5620  -15.9358    7.8299 C   0  0  0  0  0  0  0  0  0  0  0  0
  -16.5466  -16.4797   10.3021 C   0  0  0  0  0  0  0  0  0  0  0  0
  -15.4768  -20.8109    6.6608 C   0  0  0  0  0  0  0  0  0  0  0  0
  -13.4975  -19.4806    6.0381 C   0  0  0  0  0  0  0  0  0  0  0  0
  -15.6080  -15.3745   10.8127 C   0  0  0  0  0  0  0  0  0  0  0  0
  -18.0744  -16.1349   10.3226 C   0  0  0  0  0  0  0  0  0  0  0  0
  1  2  1  0  0  0  0
  2  3  1  0  0  0  0
  2  4  1  0  0  0  0
  3  5  1  0  0  0  0
  3  6  1  0  0  0  0
  4  8  1  0  0  0  0
  4  9  1  0  0  0  0
  5  7  1  0  0  0  0
  6 10  1  0  0  0  0
  6 11  1  0  0  0  0
  7  8  1  0  0  0  0
  9 12  1  0  0  0  0
  9 13  1  0  0  0  0
M  END
>  <Score>
0.182675

>  <Energy>
-6.902786

>  <Confidence>
0.817325

>  <Binding_Affinity>
-3.063232

>  <IC50_nM>
5680734.7

$$$$
