ml_pose_1
  PandaDock generated structure

 13 13  0  0  0  0  0  0  0  0999 V2000
  -15.8775  -18.5554    6.3685 O   0  0  0  0  0  0  0  0  0  0  0  0
  -15.7720  -18.0023    7.7531 C   0  0  0  0  0  0  0  0  0  0  0  0
  -15.5400  -18.7525    8.7852 C   0  0  0  0  0  0  0  0  0  0  0  0
  -15.8254  -16.5801    7.7580 C   0  0  0  0  0  0  0  0  0  0  0  0
  -15.4736  -18.0126    9.9936 C   0  0  0  0  0  0  0  0  0  0  0  0
  -15.4748  -20.2265    8.6319 C   0  0  0  0  0  0  0  0  0  0  0  0
  -15.5874  -16.6730   10.1638 C   0  0  0  0  0  0  0  0  0  0  0  0
  -15.6958  -16.0418    8.9906 C   0  0  0  0  0  0  0  0  0  0  0  0
  -16.0833  -15.7975    6.5738 C   0  0  0  0  0  0  0  0  0  0  0  0
  -13.9906  -20.6540    8.5649 C   0  0  0  0  0  0  0  0  0  0  0  0
  -16.1887  -20.9188    9.8032 C   0  0  0  0  0  0  0  0  0  0  0  0
  -17.4852  -15.2539    6.5472 C   0  0  0  0  0  0  0  0  0  0  0  0
  -15.1056  -14.6316    6.4062 C   0  0  0  0  0  0  0  0  0  0  0  0
  1  2  1  0  0  0  0
  2  3  1  0  0  0  0
  2  4  1  0  0  0  0
  3  5  1  0  0  0  0
  3  6  1  0  0  0  0
  4  8  1  0  0  0  0
  4  9  1  0  0  0  0
  5  7  1  0  0  0  0
  6 10  1  0  0  0  0
  6 11  1  0  0  0  0
  7  8  1  0  0  0  0
  9 12  1  0  0  0  0
  9 13  1  0  0  0  0
M  END
>  <Score>
0.307092

>  <Energy>
-6.629732

>  <Confidence>
0.692908

>  <Binding_Affinity>
-3.133038

>  <IC50_nM>
5049297.2

$$$$
