ml_pose_23
  PandaDock generated structure

 13 13  0  0  0  0  0  0  0  0999 V2000
  -15.0688  -16.3506    9.5932 O   0  0  0  0  0  0  0  0  0  0  0  0
  -15.5241  -17.3549    8.5469 C   0  0  0  0  0  0  0  0  0  0  0  0
  -16.8468  -17.8037    8.4902 C   0  0  0  0  0  0  0  0  0  0  0  0
  -14.6405  -17.7794    7.7059 C   0  0  0  0  0  0  0  0  0  0  0  0
  -17.2225  -18.7131    7.6280 C   0  0  0  0  0  0  0  0  0  0  0  0
  -17.9029  -17.2277    9.5762 C   0  0  0  0  0  0  0  0  0  0  0  0
  -16.3046  -19.1661    6.6495 C   0  0  0  0  0  0  0  0  0  0  0  0
  -14.9980  -18.6815    6.7236 C   0  0  0  0  0  0  0  0  0  0  0  0
  -13.1358  -17.3586    7.6878 C   0  0  0  0  0  0  0  0  0  0  0  0
  -18.7267  -16.1267    9.0456 C   0  0  0  0  0  0  0  0  0  0  0  0
  -18.7075  -18.4324   10.1617 C   0  0  0  0  0  0  0  0  0  0  0  0
  -12.2649  -18.2803    8.2309 C   0  0  0  0  0  0  0  0  0  0  0  0
  -12.7567  -16.8250    6.3005 C   0  0  0  0  0  0  0  0  0  0  0  0
  1  2  1  0  0  0  0
  2  3  1  0  0  0  0
  2  4  1  0  0  0  0
  3  5  1  0  0  0  0
  3  6  1  0  0  0  0
  4  8  1  0  0  0  0
  4  9  1  0  0  0  0
  5  7  1  0  0  0  0
  6 10  1  0  0  0  0
  6 11  1  0  0  0  0
  7  8  1  0  0  0  0
  9 12  1  0  0  0  0
  9 13  1  0  0  0  0
M  END
>  <Score>
0.253867

>  <Energy>
-6.134362

>  <Confidence>
0.746133

>  <Binding_Affinity>
-3.000000

>  <IC50_nM>
6320605.5

$$$$
