ml_pose_40
  PandaDock generated structure

 13 13  0  0  0  0  0  0  0  0999 V2000
  -14.1853  -18.9297    8.5296 O   0  0  0  0  0  0  0  0  0  0  0  0
  -15.1935  -18.0345    8.2372 C   0  0  0  0  0  0  0  0  0  0  0  0
  -15.2879  -17.2864    7.0905 C   0  0  0  0  0  0  0  0  0  0  0  0
  -16.2394  -17.9852    9.3148 C   0  0  0  0  0  0  0  0  0  0  0  0
  -16.2950  -16.4358    6.8861 C   0  0  0  0  0  0  0  0  0  0  0  0
  -14.1949  -17.4058    6.1152 C   0  0  0  0  0  0  0  0  0  0  0  0
  -17.3416  -16.2656    7.8517 C   0  0  0  0  0  0  0  0  0  0  0  0
  -17.3290  -17.1441    8.9441 C   0  0  0  0  0  0  0  0  0  0  0  0
  -16.2315  -18.8367   10.4384 C   0  0  0  0  0  0  0  0  0  0  0  0
  -14.4327  -18.2259    4.9364 C   0  0  0  0  0  0  0  0  0  0  0  0
  -13.7292  -15.9887    5.7206 C   0  0  0  0  0  0  0  0  0  0  0  0
  -16.0132  -18.0447   11.6659 C   0  0  0  0  0  0  0  0  0  0  0  0
  -17.6268  -19.5168   10.6095 C   0  0  0  0  0  0  0  0  0  0  0  0
  1  2  1  0  0  0  0
  2  3  1  0  0  0  0
  2  4  1  0  0  0  0
  3  5  1  0  0  0  0
  3  6  1  0  0  0  0
  4  8  1  0  0  0  0
  4  9  1  0  0  0  0
  5  7  1  0  0  0  0
  6 10  1  0  0  0  0
  6 11  1  0  0  0  0
  7  8  1  0  0  0  0
  9 12  1  0  0  0  0
  9 13  1  0  0  0  0
M  END
>  <Score>
0.315288

>  <Energy>
-6.185944

>  <Confidence>
0.684712

>  <Binding_Affinity>
-3.052477

>  <IC50_nM>
5784808.0

$$$$
