ml_pose_32
  PandaDock generated structure

 13 13  0  0  0  0  0  0  0  0999 V2000
  -15.7189  -19.5155    8.7950 O   0  0  0  0  0  0  0  0  0  0  0  0
  -15.7394  -18.2077    8.4252 C   0  0  0  0  0  0  0  0  0  0  0  0
  -14.5123  -17.7266    7.7044 C   0  0  0  0  0  0  0  0  0  0  0  0
  -16.7919  -17.5365    8.4742 C   0  0  0  0  0  0  0  0  0  0  0  0
  -14.6334  -16.3544    7.3238 C   0  0  0  0  0  0  0  0  0  0  0  0
  -13.3484  -18.5676    7.5027 C   0  0  0  0  0  0  0  0  0  0  0  0
  -15.7230  -15.6525    7.5461 C   0  0  0  0  0  0  0  0  0  0  0  0
  -16.8110  -16.1292    8.1432 C   0  0  0  0  0  0  0  0  0  0  0  0
  -18.0498  -18.0940    9.3160 C   0  0  0  0  0  0  0  0  0  0  0  0
  -13.2615  -19.2326    6.1104 C   0  0  0  0  0  0  0  0  0  0  0  0
  -12.0493  -17.8074    7.9101 C   0  0  0  0  0  0  0  0  0  0  0  0
  -18.2217  -17.5349   10.6869 C   0  0  0  0  0  0  0  0  0  0  0  0
  -19.2394  -17.7412    8.4022 C   0  0  0  0  0  0  0  0  0  0  0  0
  1  2  1  0  0  0  0
  2  3  1  0  0  0  0
  2  4  1  0  0  0  0
  3  5  1  0  0  0  0
  3  6  1  0  0  0  0
  4  8  1  0  0  0  0
  4  9  1  0  0  0  0
  5  7  1  0  0  0  0
  6 10  1  0  0  0  0
  6 11  1  0  0  0  0
  7  8  1  0  0  0  0
  9 12  1  0  0  0  0
  9 13  1  0  0  0  0
M  END
>  <Score>
0.131136

>  <Energy>
-6.870553

>  <Confidence>
0.868864

>  <Binding_Affinity>
-8.624562

>  <IC50_nM>
475.9

$$$$
