ml_pose_7
  PandaDock generated structure

 13 13  0  0  0  0  0  0  0  0999 V2000
  -14.8731  -18.6238    6.5982 O   0  0  0  0  0  0  0  0  0  0  0  0
  -15.4891  -17.9984    7.6841 C   0  0  0  0  0  0  0  0  0  0  0  0
  -16.6012  -18.4149    8.2073 C   0  0  0  0  0  0  0  0  0  0  0  0
  -14.9502  -16.7919    8.3047 C   0  0  0  0  0  0  0  0  0  0  0  0
  -17.1229  -17.8727    9.3677 C   0  0  0  0  0  0  0  0  0  0  0  0
  -17.2007  -19.7179    7.6444 C   0  0  0  0  0  0  0  0  0  0  0  0
  -16.6098  -16.8052    9.9229 C   0  0  0  0  0  0  0  0  0  0  0  0
  -15.5128  -16.1532    9.4025 C   0  0  0  0  0  0  0  0  0  0  0  0
  -13.6273  -16.2927    7.5685 C   0  0  0  0  0  0  0  0  0  0  0  0
  -16.9422  -20.9104    8.4174 C   0  0  0  0  0  0  0  0  0  0  0  0
  -18.7094  -19.5034    7.6430 C   0  0  0  0  0  0  0  0  0  0  0  0
  -13.9205  -15.0254    6.8628 C   0  0  0  0  0  0  0  0  0  0  0  0
  -12.5407  -15.9901    8.7165 C   0  0  0  0  0  0  0  0  0  0  0  0
  1  2  1  0  0  0  0
  2  3  1  0  0  0  0
  2  4  1  0  0  0  0
  3  5  1  0  0  0  0
  3  6  1  0  0  0  0
  4  8  1  0  0  0  0
  4  9  1  0  0  0  0
  5  7  1  0  0  0  0
  6 10  1  0  0  0  0
  6 11  1  0  0  0  0
  7  8  1  0  0  0  0
  9 12  1  0  0  0  0
  9 13  1  0  0  0  0
M  END
>  <Score>
0.134257

>  <Energy>
-8.168204

>  <Confidence>
0.865743

>  <Binding_Affinity>
-8.528337

>  <IC50_nM>
559.8

$$$$
