ml_pose_47
  PandaDock generated structure

 13 13  0  0  0  0  0  0  0  0999 V2000
  -14.6345  -16.8384    6.7741 O   0  0  0  0  0  0  0  0  0  0  0  0
  -15.4960  -17.4289    7.7396 C   0  0  0  0  0  0  0  0  0  0  0  0
  -16.6099  -17.9605    7.5458 C   0  0  0  0  0  0  0  0  0  0  0  0
  -14.9195  -17.5029    9.0067 C   0  0  0  0  0  0  0  0  0  0  0  0
  -17.4301  -18.5766    8.4925 C   0  0  0  0  0  0  0  0  0  0  0  0
  -17.1721  -17.8732    6.1025 C   0  0  0  0  0  0  0  0  0  0  0  0
  -16.8222  -18.5920    9.7962 C   0  0  0  0  0  0  0  0  0  0  0  0
  -15.5610  -18.1300   10.0064 C   0  0  0  0  0  0  0  0  0  0  0  0
  -13.4225  -16.9710    9.2604 C   0  0  0  0  0  0  0  0  0  0  0  0
  -17.0946  -19.2277    5.3320 C   0  0  0  0  0  0  0  0  0  0  0  0
  -18.7623  -17.4905    6.1276 C   0  0  0  0  0  0  0  0  0  0  0  0
  -13.6406  -15.6277   10.1114 C   0  0  0  0  0  0  0  0  0  0  0  0
  -12.5349  -17.8807   10.0449 C   0  0  0  0  0  0  0  0  0  0  0  0
  1  2  1  0  0  0  0
  2  3  1  0  0  0  0
  2  4  1  0  0  0  0
  3  5  1  0  0  0  0
  3  6  1  0  0  0  0
  4  8  1  0  0  0  0
  4  9  1  0  0  0  0
  5  7  1  0  0  0  0
  6 10  1  0  0  0  0
  6 11  1  0  0  0  0
  7  8  1  0  0  0  0
  9 12  1  0  0  0  0
  9 13  1  0  0  0  0
M  END
>  <Score>
0.122968

>  <Energy>
-11.625677

>  <Confidence>
0.877032

>  <Binding_Affinity>
-10.506785

>  <IC50_nM>
19.8

$$$$
