ml_pose_23
  PandaDock generated structure

 13 13  0  0  0  0  0  0  0  0999 V2000
  -15.0836  -19.2787    9.1104 O   0  0  0  0  0  0  0  0  0  0  0  0
  -15.5053  -18.1187    8.4560 C   0  0  0  0  0  0  0  0  0  0  0  0
  -14.5624  -17.3606    7.8900 C   0  0  0  0  0  0  0  0  0  0  0  0
  -16.8913  -17.8138    8.3506 C   0  0  0  0  0  0  0  0  0  0  0  0
  -14.9748  -16.1748    7.1706 C   0  0  0  0  0  0  0  0  0  0  0  0
  -13.0440  -17.5914    8.1015 C   0  0  0  0  0  0  0  0  0  0  0  0
  -16.3482  -15.8400    7.1638 C   0  0  0  0  0  0  0  0  0  0  0  0
  -17.3069  -16.7594    7.7444 C   0  0  0  0  0  0  0  0  0  0  0  0
  -17.9669  -18.8512    8.9635 C   0  0  0  0  0  0  0  0  0  0  0  0
  -12.6476  -18.2705    6.7377 C   0  0  0  0  0  0  0  0  0  0  0  0
  -12.3641  -16.4988    8.4218 C   0  0  0  0  0  0  0  0  0  0  0  0
  -18.4618  -18.3056   10.2555 C   0  0  0  0  0  0  0  0  0  0  0  0
  -18.9432  -19.2365    7.9742 C   0  0  0  0  0  0  0  0  0  0  0  0
  1  2  1  0  0  0  0
  2  3  1  0  0  0  0
  2  4  1  0  0  0  0
  3  5  1  0  0  0  0
  3  6  1  0  0  0  0
  4  8  1  0  0  0  0
  4  9  1  0  0  0  0
  5  7  1  0  0  0  0
  6 10  1  0  0  0  0
  6 11  1  0  0  0  0
  7  8  1  0  0  0  0
  9 12  1  0  0  0  0
  9 13  1  0  0  0  0
M  END
>  <Score>
-1.730832

>  <Energy>
-5.387118

>  <Confidence>
0.734958

>  <Binding_Affinity>
-6.469821

>  <IC50_nM>
18075.9

$$$$
