ml_pose_22
  PandaDock generated structure

 13 13  0  0  0  0  0  0  0  0999 V2000
  -16.2844  -17.1623    6.3112 O   0  0  0  0  0  0  0  0  0  0  0  0
  -15.7998  -17.5999    7.6883 C   0  0  0  0  0  0  0  0  0  0  0  0
  -16.5146  -17.0651    8.6891 C   0  0  0  0  0  0  0  0  0  0  0  0
  -14.8640  -18.3079    7.9366 C   0  0  0  0  0  0  0  0  0  0  0  0
  -16.1705  -17.3642   10.0287 C   0  0  0  0  0  0  0  0  0  0  0  0
  -17.6801  -16.0962    8.4406 C   0  0  0  0  0  0  0  0  0  0  0  0
  -15.0269  -18.1734   10.1417 C   0  0  0  0  0  0  0  0  0  0  0  0
  -14.3973  -18.7659    9.1210 C   0  0  0  0  0  0  0  0  0  0  0  0
  -14.1029  -18.9359    6.6911 C   0  0  0  0  0  0  0  0  0  0  0  0
  -19.1709  -16.8283    8.5584 C   0  0  0  0  0  0  0  0  0  0  0  0
  -17.7403  -15.0209    9.5144 C   0  0  0  0  0  0  0  0  0  0  0  0
  -12.5950  -18.2344    6.4995 C   0  0  0  0  0  0  0  0  0  0  0  0
  -13.7534  -20.5456    6.7194 C   0  0  0  0  0  0  0  0  0  0  0  0
  1  2  1  0  0  0  0
  2  3  1  0  0  0  0
  2  4  1  0  0  0  0
  3  5  1  0  0  0  0
  3  6  1  0  0  0  0
  4  8  1  0  0  0  0
  4  9  1  0  0  0  0
  5  7  1  0  0  0  0
  6 10  1  0  0  0  0
  6 11  1  0  0  0  0
  7  8  1  0  0  0  0
  9 12  1  0  0  0  0
  9 13  1  0  0  0  0
M  END
>  <Score>
-2.010091

>  <Energy>
-5.107374

>  <Confidence>
0.711888

>  <Binding_Affinity>
-6.649344

>  <IC50_nM>
13350.4

$$$$
