ml_pose_17
  PandaDock generated structure

 13 13  0  0  0  0  0  0  0  0999 V2000
  -15.2886  -19.4858    7.2168 O   0  0  0  0  0  0  0  0  0  0  0  0
  -15.5289  -18.1501    7.9088 C   0  0  0  0  0  0  0  0  0  0  0  0
  -15.5982  -16.9173    7.2079 C   0  0  0  0  0  0  0  0  0  0  0  0
  -15.7082  -18.2431    9.2409 C   0  0  0  0  0  0  0  0  0  0  0  0
  -16.0085  -15.8407    7.8635 C   0  0  0  0  0  0  0  0  0  0  0  0
  -15.5047  -17.0325    5.7171 C   0  0  0  0  0  0  0  0  0  0  0  0
  -16.2269  -15.7726    9.2590 C   0  0  0  0  0  0  0  0  0  0  0  0
  -16.0672  -17.0462    9.9500 C   0  0  0  0  0  0  0  0  0  0  0  0
  -15.5738  -19.5226   10.0395 C   0  0  0  0  0  0  0  0  0  0  0  0
  -16.8558  -16.9411    4.9885 C   0  0  0  0  0  0  0  0  0  0  0  0
  -14.6635  -15.6352    5.2707 C   0  0  0  0  0  0  0  0  0  0  0  0
  -14.2939  -19.6646   10.8038 C   0  0  0  0  0  0  0  0  0  0  0  0
  -16.7817  -19.8483   10.8734 C   0  0  0  0  0  0  0  0  0  0  0  0
  1  2  1  0  0  0  0
  2  3  1  0  0  0  0
  2  4  1  0  0  0  0
  3  5  1  0  0  0  0
  3  6  1  0  0  0  0
  4  8  1  0  0  0  0
  4  9  1  0  0  0  0
  5  7  1  0  0  0  0
  6 10  1  0  0  0  0
  6 11  1  0  0  0  0
  7  8  1  0  0  0  0
  9 12  1  0  0  0  0
  9 13  1  0  0  0  0
M  END
>  <Score>
-1.901733

>  <Energy>
-5.547969

>  <Confidence>
0.824336

>  <Binding_Affinity>
-6.579685

>  <IC50_nM>
15016.2

$$$$
