ml_pose_24
  PandaDock generated structure

 13 13  0  0  0  0  0  0  0  0999 V2000
  -15.4081  -16.4057    9.7273 O   0  0  0  0  0  0  0  0  0  0  0  0
  -15.6576  -17.3838    8.6217 C   0  0  0  0  0  0  0  0  0  0  0  0
  -16.9770  -17.6102    8.0966 C   0  0  0  0  0  0  0  0  0  0  0  0
  -14.7101  -17.9672    8.1957 C   0  0  0  0  0  0  0  0  0  0  0  0
  -16.9855  -18.4317    6.9743 C   0  0  0  0  0  0  0  0  0  0  0  0
  -18.0172  -16.8264    8.6690 C   0  0  0  0  0  0  0  0  0  0  0  0
  -15.9167  -19.1835    6.6164 C   0  0  0  0  0  0  0  0  0  0  0  0
  -14.6814  -18.9316    7.0606 C   0  0  0  0  0  0  0  0  0  0  0  0
  -13.1555  -17.6915    8.6936 C   0  0  0  0  0  0  0  0  0  0  0  0
  -18.5518  -15.5917    7.7947 C   0  0  0  0  0  0  0  0  0  0  0  0
  -19.2471  -17.8673    8.7317 C   0  0  0  0  0  0  0  0  0  0  0  0
  -12.6495  -18.7945    9.6097 C   0  0  0  0  0  0  0  0  0  0  0  0
  -12.1423  -17.4149    7.5489 C   0  0  0  0  0  0  0  0  0  0  0  0
  1  2  1  0  0  0  0
  2  3  1  0  0  0  0
  2  4  1  0  0  0  0
  3  5  1  0  0  0  0
  3  6  1  0  0  0  0
  4  8  1  0  0  0  0
  4  9  1  0  0  0  0
  5  7  1  0  0  0  0
  6 10  1  0  0  0  0
  6 11  1  0  0  0  0
  7  8  1  0  0  0  0
  9 12  1  0  0  0  0
  9 13  1  0  0  0  0
M  END
>  <Score>
0.114661

>  <Energy>
-5.461103

>  <Confidence>
0.885339

>  <Binding_Affinity>
-12.206790

>  <IC50_nM>
1.1

$$$$
ml_pose_29
  PandaDock generated structure

 13 13  0  0  0  0  0  0  0  0999 V2000
  -15.8220  -15.9522    7.1808 O   0  0  0  0  0  0  0  0  0  0  0  0
  -15.7156  -17.1722    7.8623 C   0  0  0  0  0  0  0  0  0  0  0  0
  -16.6018  -18.2241    7.6125 C   0  0  0  0  0  0  0  0  0  0  0  0
  -14.7913  -17.3777    8.8903 C   0  0  0  0  0  0  0  0  0  0  0  0
  -16.4746  -19.3750    8.2545 C   0  0  0  0  0  0  0  0  0  0  0  0
  -17.6609  -18.0002    6.5772 C   0  0  0  0  0  0  0  0  0  0  0  0
  -15.6097  -19.5783    9.3782 C   0  0  0  0  0  0  0  0  0  0  0  0
  -14.7072  -18.5565    9.6091 C   0  0  0  0  0  0  0  0  0  0  0  0
  -13.9244  -16.2393    9.1337 C   0  0  0  0  0  0  0  0  0  0  0  0
  -17.2633  -18.5606    5.1380 C   0  0  0  0  0  0  0  0  0  0  0  0
  -18.9257  -18.6625    6.9016 C   0  0  0  0  0  0  0  0  0  0  0  0
  -14.1848  -15.5900   10.5537 C   0  0  0  0  0  0  0  0  0  0  0  0
  -12.4187  -16.8114    9.2480 C   0  0  0  0  0  0  0  0  0  0  0  0
  1  2  1  0  0  0  0
  2  3  1  0  0  0  0
  2  4  1  0  0  0  0
  3  5  1  0  0  0  0
  3  6  1  0  0  0  0
  4  8  1  0  0  0  0
  4  9  1  0  0  0  0
  5  7  1  0  0  0  0
  6 10  1  0  0  0  0
  6 11  1  0  0  0  0
  7  8  1  0  0  0  0
  9 12  1  0  0  0  0
  9 13  1  0  0  0  0
M  END
>  <Score>
0.125141

>  <Energy>
-5.744188

>  <Confidence>
0.874859

>  <Binding_Affinity>
-11.997172

>  <IC50_nM>
1.6

$$$$
ml_pose_21
  PandaDock generated structure

 13 13  0  0  0  0  0  0  0  0999 V2000
  -14.0426  -16.9421    7.5747 O   0  0  0  0  0  0  0  0  0  0  0  0
  -15.2171  -17.4930    8.0046 C   0  0  0  0  0  0  0  0  0  0  0  0
  -16.3992  -16.8102    7.8161 C   0  0  0  0  0  0  0  0  0  0  0  0
  -15.1550  -18.6668    8.6034 C   0  0  0  0  0  0  0  0  0  0  0  0
  -17.5984  -17.3380    8.2563 C   0  0  0  0  0  0  0  0  0  0  0  0
  -16.4090  -15.3732    7.1610 C   0  0  0  0  0  0  0  0  0  0  0  0
  -17.5841  -18.5774    8.9969 C   0  0  0  0  0  0  0  0  0  0  0  0
  -16.4130  -19.2929    9.0759 C   0  0  0  0  0  0  0  0  0  0  0  0
  -13.8248  -19.3335    8.7597 C   0  0  0  0  0  0  0  0  0  0  0  0
  -16.7616  -15.6074    5.6992 C   0  0  0  0  0  0  0  0  0  0  0  0
  -17.2888  -14.4155    7.8319 C   0  0  0  0  0  0  0  0  0  0  0  0
  -13.3451  -19.3509   10.2861 C   0  0  0  0  0  0  0  0  0  0  0  0
  -14.0615  -20.8991    8.2741 C   0  0  0  0  0  0  0  0  0  0  0  0
  1  2  1  0  0  0  0
  2  3  1  0  0  0  0
  2  4  1  0  0  0  0
  3  5  1  0  0  0  0
  3  6  1  0  0  0  0
  4  8  1  0  0  0  0
  4  9  1  0  0  0  0
  5  7  1  0  0  0  0
  6 10  1  0  0  0  0
  6 11  1  0  0  0  0
  7  8  1  0  0  0  0
  9 12  1  0  0  0  0
  9 13  1  0  0  0  0
M  END
>  <Score>
0.135810

>  <Energy>
-6.133296

>  <Confidence>
0.864190

>  <Binding_Affinity>
-11.783803

>  <IC50_nM>
2.3

$$$$
ml_pose_7
  PandaDock generated structure

 13 13  0  0  0  0  0  0  0  0999 V2000
  -14.7910  -17.2009    6.5561 O   0  0  0  0  0  0  0  0  0  0  0  0
  -15.5017  -17.5904    7.6456 C   0  0  0  0  0  0  0  0  0  0  0  0
  -15.3832  -18.7732    8.0022 C   0  0  0  0  0  0  0  0  0  0  0  0
  -16.0730  -16.5598    8.3600 C   0  0  0  0  0  0  0  0  0  0  0  0
  -16.1278  -19.1938    9.2428 C   0  0  0  0  0  0  0  0  0  0  0  0
  -14.7521  -19.8871    7.2990 C   0  0  0  0  0  0  0  0  0  0  0  0
  -16.6872  -18.3204    9.9976 C   0  0  0  0  0  0  0  0  0  0  0  0
  -16.7388  -16.9975    9.6475 C   0  0  0  0  0  0  0  0  0  0  0  0
  -16.0198  -15.1659    7.9870 C   0  0  0  0  0  0  0  0  0  0  0  0
  -13.3402  -20.2777    7.8247 C   0  0  0  0  0  0  0  0  0  0  0  0
  -15.6183  -21.1799    7.2731 C   0  0  0  0  0  0  0  0  0  0  0  0
  -17.3963  -14.7499    7.3925 C   0  0  0  0  0  0  0  0  0  0  0  0
  -15.6706  -14.2034    9.1120 C   0  0  0  0  0  0  0  0  0  0  0  0
  1  2  1  0  0  0  0
  2  3  1  0  0  0  0
  2  4  1  0  0  0  0
  3  5  1  0  0  0  0
  3  6  1  0  0  0  0
  4  8  1  0  0  0  0
  4  9  1  0  0  0  0
  5  7  1  0  0  0  0
  6 10  1  0  0  0  0
  6 11  1  0  0  0  0
  7  8  1  0  0  0  0
  9 12  1  0  0  0  0
  9 13  1  0  0  0  0
M  END
>  <Score>
0.145242

>  <Energy>
-5.563698

>  <Confidence>
0.854758

>  <Binding_Affinity>
-11.595167

>  <IC50_nM>
3.2

$$$$
ml_pose_22
  PandaDock generated structure

 13 13  0  0  0  0  0  0  0  0999 V2000
  -14.6625  -17.8133    9.7815 O   0  0  0  0  0  0  0  0  0  0  0  0
  -15.3161  -17.7213    8.7404 C   0  0  0  0  0  0  0  0  0  0  0  0
  -16.5237  -18.3829    8.5554 C   0  0  0  0  0  0  0  0  0  0  0  0
  -14.9156  -16.9757    7.6079 C   0  0  0  0  0  0  0  0  0  0  0  0
  -17.2719  -18.2996    7.3557 C   0  0  0  0  0  0  0  0  0  0  0  0
  -17.1614  -19.2431    9.7585 C   0  0  0  0  0  0  0  0  0  0  0  0
  -16.8012  -17.6578    6.2976 C   0  0  0  0  0  0  0  0  0  0  0  0
  -15.5995  -17.0271    6.4460 C   0  0  0  0  0  0  0  0  0  0  0  0
  -13.5760  -16.2837    7.7127 C   0  0  0  0  0  0  0  0  0  0  0  0
  -18.2980  -18.3857   10.4637 C   0  0  0  0  0  0  0  0  0  0  0  0
  -17.8406  -20.5173    9.2484 C   0  0  0  0  0  0  0  0  0  0  0  0
  -12.4023  -16.9860    7.0418 C   0  0  0  0  0  0  0  0  0  0  0  0
  -13.7313  -14.8065    7.3304 C   0  0  0  0  0  0  0  0  0  0  0  0
  1  2  1  0  0  0  0
  2  3  1  0  0  0  0
  2  4  1  0  0  0  0
  3  5  1  0  0  0  0
  3  6  1  0  0  0  0
  4  8  1  0  0  0  0
  4  9  1  0  0  0  0
  5  7  1  0  0  0  0
  6 10  1  0  0  0  0
  6 11  1  0  0  0  0
  7  8  1  0  0  0  0
  9 12  1  0  0  0  0
  9 13  1  0  0  0  0
M  END
>  <Score>
0.168664

>  <Energy>
-6.562648

>  <Confidence>
0.831336

>  <Binding_Affinity>
-11.126723

>  <IC50_nM>
7.0

$$$$
ml_pose_0
  PandaDock generated structure

 13 13  0  0  0  0  0  0  0  0999 V2000
  -15.7587  -19.4951    8.9796 O   0  0  0  0  0  0  0  0  0  0  0  0
  -15.7048  -18.1886    8.4758 C   0  0  0  0  0  0  0  0  0  0  0  0
  -15.3802  -18.1000    7.1090 C   0  0  0  0  0  0  0  0  0  0  0  0
  -16.0217  -17.1110    9.1647 C   0  0  0  0  0  0  0  0  0  0  0  0
  -15.2943  -16.9230    6.5367 C   0  0  0  0  0  0  0  0  0  0  0  0
  -14.9097  -19.2736    6.3831 C   0  0  0  0  0  0  0  0  0  0  0  0
  -15.6823  -15.6670    7.1960 C   0  0  0  0  0  0  0  0  0  0  0  0
  -16.0495  -15.8315    8.5087 C   0  0  0  0  0  0  0  0  0  0  0  0
  -16.5388  -17.2251   10.5893 C   0  0  0  0  0  0  0  0  0  0  0  0
  -15.9328  -19.9759    5.4256 C   0  0  0  0  0  0  0  0  0  0  0  0
  -13.6051  -19.0288    5.5580 C   0  0  0  0  0  0  0  0  0  0  0  0
  -15.3771  -16.7518   11.5603 C   0  0  0  0  0  0  0  0  0  0  0  0
  -17.8448  -16.5286   10.8532 C   0  0  0  0  0  0  0  0  0  0  0  0
  1  2  1  0  0  0  0
  2  3  1  0  0  0  0
  2  4  1  0  0  0  0
  3  5  1  0  0  0  0
  3  6  1  0  0  0  0
  4  8  1  0  0  0  0
  4  9  1  0  0  0  0
  5  7  1  0  0  0  0
  6 10  1  0  0  0  0
  6 11  1  0  0  0  0
  7  8  1  0  0  0  0
  9 12  1  0  0  0  0
  9 13  1  0  0  0  0
M  END
>  <Score>
0.203359

>  <Energy>
-6.707003

>  <Confidence>
0.796641

>  <Binding_Affinity>
-10.432814

>  <IC50_nM>
22.5

$$$$
ml_pose_1
  PandaDock generated structure

 13 13  0  0  0  0  0  0  0  0999 V2000
  -17.7362  -17.5524    7.9395 O   0  0  0  0  0  0  0  0  0  0  0  0
  -16.3493  -17.6061    8.1375 C   0  0  0  0  0  0  0  0  0  0  0  0
  -15.5337  -18.3672    7.2114 C   0  0  0  0  0  0  0  0  0  0  0  0
  -15.6576  -16.9167    9.1601 C   0  0  0  0  0  0  0  0  0  0  0  0
  -14.0907  -18.5258    7.3366 C   0  0  0  0  0  0  0  0  0  0  0  0
  -16.1461  -19.1960    6.1149 C   0  0  0  0  0  0  0  0  0  0  0  0
  -13.5154  -17.8871    8.3766 C   0  0  0  0  0  0  0  0  0  0  0  0
  -14.2320  -17.1654    9.3725 C   0  0  0  0  0  0  0  0  0  0  0  0
  -16.5611  -16.2193   10.1441 C   0  0  0  0  0  0  0  0  0  0  0  0
  -16.0273  -18.4167    4.7743 C   0  0  0  0  0  0  0  0  0  0  0  0
  -15.6157  -20.6071    6.0048 C   0  0  0  0  0  0  0  0  0  0  0  0
  -16.6783  -16.8709   11.5100 C   0  0  0  0  0  0  0  0  0  0  0  0
  -15.9567  -14.7693   10.2578 C   0  0  0  0  0  0  0  0  0  0  0  0
  1  2  1  0  0  0  0
  2  3  1  0  0  0  0
  2  4  1  0  0  0  0
  3  5  1  0  0  0  0
  3  6  1  0  0  0  0
  4  8  1  0  0  0  0
  4  9  1  0  0  0  0
  5  7  1  0  0  0  0
  6 10  1  0  0  0  0
  6 11  1  0  0  0  0
  7  8  1  0  0  0  0
  9 12  1  0  0  0  0
  9 13  1  0  0  0  0
M  END
>  <Score>
0.225794

>  <Energy>
-5.689812

>  <Confidence>
0.774206

>  <Binding_Affinity>
-9.984124

>  <IC50_nM>
48.0

$$$$
ml_pose_11
  PandaDock generated structure

 13 13  0  0  0  0  0  0  0  0999 V2000
  -13.8469  -18.2507    8.2434 O   0  0  0  0  0  0  0  0  0  0  0  0
  -15.0789  -17.8012    8.2327 C   0  0  0  0  0  0  0  0  0  0  0  0
  -16.0128  -18.7820    8.3450 C   0  0  0  0  0  0  0  0  0  0  0  0
  -15.4090  -16.6006    7.8490 C   0  0  0  0  0  0  0  0  0  0  0  0
  -17.6038  -18.3916    8.3601 C   0  0  0  0  0  0  0  0  0  0  0  0
  -15.8964  -20.2322    8.7281 C   0  0  0  0  0  0  0  0  0  0  0  0
  -17.7777  -16.9783    8.0959 C   0  0  0  0  0  0  0  0  0  0  0  0
  -16.8517  -16.2442    7.8688 C   0  0  0  0  0  0  0  0  0  0  0  0
  -14.3950  -15.5977    7.6276 C   0  0  0  0  0  0  0  0  0  0  0  0
  -15.7641  -20.5391   10.2952 C   0  0  0  0  0  0  0  0  0  0  0  0
  -16.6654  -21.2041    8.0692 C   0  0  0  0  0  0  0  0  0  0  0  0
  -14.2470  -15.2013    6.1216 C   0  0  0  0  0  0  0  0  0  0  0  0
  -14.5514  -14.2770    8.5035 C   0  0  0  0  0  0  0  0  0  0  0  0
  1  2  1  0  0  0  0
  2  3  1  0  0  0  0
  2  4  1  0  0  0  0
  3  5  1  0  0  0  0
  3  6  1  0  0  0  0
  4  8  1  0  0  0  0
  4  9  1  0  0  0  0
  5  7  1  0  0  0  0
  6 10  1  0  0  0  0
  6 11  1  0  0  0  0
  7  8  1  0  0  0  0
  9 12  1  0  0  0  0
  9 13  1  0  0  0  0
M  END
>  <Score>
0.246466

>  <Energy>
-12.295942

>  <Confidence>
0.753534

>  <Binding_Affinity>
-9.570678

>  <IC50_nM>
96.4

$$$$
ml_pose_14
  PandaDock generated structure

 13 13  0  0  0  0  0  0  0  0999 V2000
  -15.6108  -17.8886   10.1441 O   0  0  0  0  0  0  0  0  0  0  0  0
  -15.6179  -17.7181    8.8318 C   0  0  0  0  0  0  0  0  0  0  0  0
  -16.5512  -16.8569    8.0912 C   0  0  0  0  0  0  0  0  0  0  0  0
  -15.0186  -18.5975    7.9349 C   0  0  0  0  0  0  0  0  0  0  0  0
  -16.5459  -16.7171    6.7777 C   0  0  0  0  0  0  0  0  0  0  0  0
  -17.3864  -15.9230    8.9110 C   0  0  0  0  0  0  0  0  0  0  0  0
  -15.8192  -17.5397    6.0553 C   0  0  0  0  0  0  0  0  0  0  0  0
  -14.9721  -18.4547    6.5730 C   0  0  0  0  0  0  0  0  0  0  0  0
  -13.9493  -19.6101    8.6596 C   0  0  0  0  0  0  0  0  0  0  0  0
  -16.7516  -14.5341    9.1890 C   0  0  0  0  0  0  0  0  0  0  0  0
  -18.7548  -15.7466    8.4206 C   0  0  0  0  0  0  0  0  0  0  0  0
  -14.5797  -21.0789    8.4755 C   0  0  0  0  0  0  0  0  0  0  0  0
  -12.5426  -19.4349    8.2764 C   0  0  0  0  0  0  0  0  0  0  0  0
  1  2  1  0  0  0  0
  2  3  1  0  0  0  0
  2  4  1  0  0  0  0
  3  5  1  0  0  0  0
  3  6  1  0  0  0  0
  4  8  1  0  0  0  0
  4  9  1  0  0  0  0
  5  7  1  0  0  0  0
  6 10  1  0  0  0  0
  6 11  1  0  0  0  0
  7  8  1  0  0  0  0
  9 12  1  0  0  0  0
  9 13  1  0  0  0  0
M  END
>  <Score>
0.250628

>  <Energy>
-5.487605

>  <Confidence>
0.749372

>  <Binding_Affinity>
-9.487432

>  <IC50_nM>
110.9

$$$$
ml_pose_19
  PandaDock generated structure

 13 13  0  0  0  0  0  0  0  0999 V2000
  -15.6902  -18.0707   10.1149 O   0  0  0  0  0  0  0  0  0  0  0  0
  -15.6614  -17.6687    8.6985 C   0  0  0  0  0  0  0  0  0  0  0  0
  -16.3406  -16.6442    8.2311 C   0  0  0  0  0  0  0  0  0  0  0  0
  -15.1244  -18.7337    7.8743 C   0  0  0  0  0  0  0  0  0  0  0  0
  -16.3398  -16.4606    6.9423 C   0  0  0  0  0  0  0  0  0  0  0  0
  -17.0503  -15.7044    9.1580 C   0  0  0  0  0  0  0  0  0  0  0  0
  -15.7854  -17.3769    6.0808 C   0  0  0  0  0  0  0  0  0  0  0  0
  -15.1960  -18.4443    6.5666 C   0  0  0  0  0  0  0  0  0  0  0  0
  -14.4124  -20.0244    8.4488 C   0  0  0  0  0  0  0  0  0  0  0  0
  -16.1743  -14.4659    9.4939 C   0  0  0  0  0  0  0  0  0  0  0  0
  -18.3484  -15.2105    8.5581 C   0  0  0  0  0  0  0  0  0  0  0  0
  -15.0835  -21.1692    8.2210 C   0  0  0  0  0  0  0  0  0  0  0  0
  -12.8933  -20.1264    7.9517 C   0  0  0  0  0  0  0  0  0  0  0  0
  1  2  1  0  0  0  0
  2  3  1  0  0  0  0
  2  4  1  0  0  0  0
  3  5  1  0  0  0  0
  3  6  1  0  0  0  0
  4  8  1  0  0  0  0
  4  9  1  0  0  0  0
  5  7  1  0  0  0  0
  6 10  1  0  0  0  0
  6 11  1  0  0  0  0
  7  8  1  0  0  0  0
  9 12  1  0  0  0  0
  9 13  1  0  0  0  0
M  END
>  <Score>
0.284920

>  <Energy>
-8.530267

>  <Confidence>
0.715080

>  <Binding_Affinity>
-8.801609

>  <IC50_nM>
352.9

$$$$
