ml_pose_24
  PandaDock generated structure

 13 13  0  0  0  0  0  0  0  0999 V2000
  -15.4081  -16.4057    9.7273 O   0  0  0  0  0  0  0  0  0  0  0  0
  -15.6576  -17.3838    8.6217 C   0  0  0  0  0  0  0  0  0  0  0  0
  -16.9770  -17.6102    8.0966 C   0  0  0  0  0  0  0  0  0  0  0  0
  -14.7101  -17.9672    8.1957 C   0  0  0  0  0  0  0  0  0  0  0  0
  -16.9855  -18.4317    6.9743 C   0  0  0  0  0  0  0  0  0  0  0  0
  -18.0172  -16.8264    8.6690 C   0  0  0  0  0  0  0  0  0  0  0  0
  -15.9167  -19.1835    6.6164 C   0  0  0  0  0  0  0  0  0  0  0  0
  -14.6814  -18.9316    7.0606 C   0  0  0  0  0  0  0  0  0  0  0  0
  -13.1555  -17.6915    8.6936 C   0  0  0  0  0  0  0  0  0  0  0  0
  -18.5518  -15.5917    7.7947 C   0  0  0  0  0  0  0  0  0  0  0  0
  -19.2471  -17.8673    8.7317 C   0  0  0  0  0  0  0  0  0  0  0  0
  -12.6495  -18.7945    9.6097 C   0  0  0  0  0  0  0  0  0  0  0  0
  -12.1423  -17.4149    7.5489 C   0  0  0  0  0  0  0  0  0  0  0  0
  1  2  1  0  0  0  0
  2  3  1  0  0  0  0
  2  4  1  0  0  0  0
  3  5  1  0  0  0  0
  3  6  1  0  0  0  0
  4  8  1  0  0  0  0
  4  9  1  0  0  0  0
  5  7  1  0  0  0  0
  6 10  1  0  0  0  0
  6 11  1  0  0  0  0
  7  8  1  0  0  0  0
  9 12  1  0  0  0  0
  9 13  1  0  0  0  0
M  END
>  <Score>
0.114661

>  <Energy>
-5.461103

>  <Confidence>
0.885339

>  <Binding_Affinity>
-12.206790

>  <IC50_nM>
1.1

$$$$
