ml_pose_21
  PandaDock generated structure

 13 13  0  0  0  0  0  0  0  0999 V2000
  -14.0426  -16.9421    7.5747 O   0  0  0  0  0  0  0  0  0  0  0  0
  -15.2171  -17.4930    8.0046 C   0  0  0  0  0  0  0  0  0  0  0  0
  -16.3992  -16.8102    7.8161 C   0  0  0  0  0  0  0  0  0  0  0  0
  -15.1550  -18.6668    8.6034 C   0  0  0  0  0  0  0  0  0  0  0  0
  -17.5984  -17.3380    8.2563 C   0  0  0  0  0  0  0  0  0  0  0  0
  -16.4090  -15.3732    7.1610 C   0  0  0  0  0  0  0  0  0  0  0  0
  -17.5841  -18.5774    8.9969 C   0  0  0  0  0  0  0  0  0  0  0  0
  -16.4130  -19.2929    9.0759 C   0  0  0  0  0  0  0  0  0  0  0  0
  -13.8248  -19.3335    8.7597 C   0  0  0  0  0  0  0  0  0  0  0  0
  -16.7616  -15.6074    5.6992 C   0  0  0  0  0  0  0  0  0  0  0  0
  -17.2888  -14.4155    7.8319 C   0  0  0  0  0  0  0  0  0  0  0  0
  -13.3451  -19.3509   10.2861 C   0  0  0  0  0  0  0  0  0  0  0  0
  -14.0615  -20.8991    8.2741 C   0  0  0  0  0  0  0  0  0  0  0  0
  1  2  1  0  0  0  0
  2  3  1  0  0  0  0
  2  4  1  0  0  0  0
  3  5  1  0  0  0  0
  3  6  1  0  0  0  0
  4  8  1  0  0  0  0
  4  9  1  0  0  0  0
  5  7  1  0  0  0  0
  6 10  1  0  0  0  0
  6 11  1  0  0  0  0
  7  8  1  0  0  0  0
  9 12  1  0  0  0  0
  9 13  1  0  0  0  0
M  END
>  <Score>
0.135810

>  <Energy>
-6.133296

>  <Confidence>
0.864190

>  <Binding_Affinity>
-11.783803

>  <IC50_nM>
2.3

$$$$
