ml_pose_1
  PandaDock generated structure

 13 13  0  0  0  0  0  0  0  0999 V2000
  -17.7362  -17.5524    7.9395 O   0  0  0  0  0  0  0  0  0  0  0  0
  -16.3493  -17.6061    8.1375 C   0  0  0  0  0  0  0  0  0  0  0  0
  -15.5337  -18.3672    7.2114 C   0  0  0  0  0  0  0  0  0  0  0  0
  -15.6576  -16.9167    9.1601 C   0  0  0  0  0  0  0  0  0  0  0  0
  -14.0907  -18.5258    7.3366 C   0  0  0  0  0  0  0  0  0  0  0  0
  -16.1461  -19.1960    6.1149 C   0  0  0  0  0  0  0  0  0  0  0  0
  -13.5154  -17.8871    8.3766 C   0  0  0  0  0  0  0  0  0  0  0  0
  -14.2320  -17.1654    9.3725 C   0  0  0  0  0  0  0  0  0  0  0  0
  -16.5611  -16.2193   10.1441 C   0  0  0  0  0  0  0  0  0  0  0  0
  -16.0273  -18.4167    4.7743 C   0  0  0  0  0  0  0  0  0  0  0  0
  -15.6157  -20.6071    6.0048 C   0  0  0  0  0  0  0  0  0  0  0  0
  -16.6783  -16.8709   11.5100 C   0  0  0  0  0  0  0  0  0  0  0  0
  -15.9567  -14.7693   10.2578 C   0  0  0  0  0  0  0  0  0  0  0  0
  1  2  1  0  0  0  0
  2  3  1  0  0  0  0
  2  4  1  0  0  0  0
  3  5  1  0  0  0  0
  3  6  1  0  0  0  0
  4  8  1  0  0  0  0
  4  9  1  0  0  0  0
  5  7  1  0  0  0  0
  6 10  1  0  0  0  0
  6 11  1  0  0  0  0
  7  8  1  0  0  0  0
  9 12  1  0  0  0  0
  9 13  1  0  0  0  0
M  END
>  <Score>
0.225794

>  <Energy>
-5.689812

>  <Confidence>
0.774206

>  <Binding_Affinity>
-9.984124

>  <IC50_nM>
48.0

$$$$
