ml_pose_0
  PandaDock generated structure

 13 13  0  0  0  0  0  0  0  0999 V2000
  -15.7587  -19.4951    8.9796 O   0  0  0  0  0  0  0  0  0  0  0  0
  -15.7048  -18.1886    8.4758 C   0  0  0  0  0  0  0  0  0  0  0  0
  -15.3802  -18.1000    7.1090 C   0  0  0  0  0  0  0  0  0  0  0  0
  -16.0217  -17.1110    9.1647 C   0  0  0  0  0  0  0  0  0  0  0  0
  -15.2943  -16.9230    6.5367 C   0  0  0  0  0  0  0  0  0  0  0  0
  -14.9097  -19.2736    6.3831 C   0  0  0  0  0  0  0  0  0  0  0  0
  -15.6823  -15.6670    7.1960 C   0  0  0  0  0  0  0  0  0  0  0  0
  -16.0495  -15.8315    8.5087 C   0  0  0  0  0  0  0  0  0  0  0  0
  -16.5388  -17.2251   10.5893 C   0  0  0  0  0  0  0  0  0  0  0  0
  -15.9328  -19.9759    5.4256 C   0  0  0  0  0  0  0  0  0  0  0  0
  -13.6051  -19.0288    5.5580 C   0  0  0  0  0  0  0  0  0  0  0  0
  -15.3771  -16.7518   11.5603 C   0  0  0  0  0  0  0  0  0  0  0  0
  -17.8448  -16.5286   10.8532 C   0  0  0  0  0  0  0  0  0  0  0  0
  1  2  1  0  0  0  0
  2  3  1  0  0  0  0
  2  4  1  0  0  0  0
  3  5  1  0  0  0  0
  3  6  1  0  0  0  0
  4  8  1  0  0  0  0
  4  9  1  0  0  0  0
  5  7  1  0  0  0  0
  6 10  1  0  0  0  0
  6 11  1  0  0  0  0
  7  8  1  0  0  0  0
  9 12  1  0  0  0  0
  9 13  1  0  0  0  0
M  END
>  <Score>
0.203359

>  <Energy>
-6.707003

>  <Confidence>
0.796641

>  <Binding_Affinity>
-10.432814

>  <IC50_nM>
22.5

$$$$
