ml_pose_14
  PandaDock generated structure

 13 13  0  0  0  0  0  0  0  0999 V2000
  -15.6108  -17.8886   10.1441 O   0  0  0  0  0  0  0  0  0  0  0  0
  -15.6179  -17.7181    8.8318 C   0  0  0  0  0  0  0  0  0  0  0  0
  -16.5512  -16.8569    8.0912 C   0  0  0  0  0  0  0  0  0  0  0  0
  -15.0186  -18.5975    7.9349 C   0  0  0  0  0  0  0  0  0  0  0  0
  -16.5459  -16.7171    6.7777 C   0  0  0  0  0  0  0  0  0  0  0  0
  -17.3864  -15.9230    8.9110 C   0  0  0  0  0  0  0  0  0  0  0  0
  -15.8192  -17.5397    6.0553 C   0  0  0  0  0  0  0  0  0  0  0  0
  -14.9721  -18.4547    6.5730 C   0  0  0  0  0  0  0  0  0  0  0  0
  -13.9493  -19.6101    8.6596 C   0  0  0  0  0  0  0  0  0  0  0  0
  -16.7516  -14.5341    9.1890 C   0  0  0  0  0  0  0  0  0  0  0  0
  -18.7548  -15.7466    8.4206 C   0  0  0  0  0  0  0  0  0  0  0  0
  -14.5797  -21.0789    8.4755 C   0  0  0  0  0  0  0  0  0  0  0  0
  -12.5426  -19.4349    8.2764 C   0  0  0  0  0  0  0  0  0  0  0  0
  1  2  1  0  0  0  0
  2  3  1  0  0  0  0
  2  4  1  0  0  0  0
  3  5  1  0  0  0  0
  3  6  1  0  0  0  0
  4  8  1  0  0  0  0
  4  9  1  0  0  0  0
  5  7  1  0  0  0  0
  6 10  1  0  0  0  0
  6 11  1  0  0  0  0
  7  8  1  0  0  0  0
  9 12  1  0  0  0  0
  9 13  1  0  0  0  0
M  END
>  <Score>
0.250628

>  <Energy>
-5.487605

>  <Confidence>
0.749372

>  <Binding_Affinity>
-9.487432

>  <IC50_nM>
110.9

$$$$
