ml_pose_11
  PandaDock generated structure

 13 13  0  0  0  0  0  0  0  0999 V2000
  -13.8469  -18.2507    8.2434 O   0  0  0  0  0  0  0  0  0  0  0  0
  -15.0789  -17.8012    8.2327 C   0  0  0  0  0  0  0  0  0  0  0  0
  -16.0128  -18.7820    8.3450 C   0  0  0  0  0  0  0  0  0  0  0  0
  -15.4090  -16.6006    7.8490 C   0  0  0  0  0  0  0  0  0  0  0  0
  -17.6038  -18.3916    8.3601 C   0  0  0  0  0  0  0  0  0  0  0  0
  -15.8964  -20.2322    8.7281 C   0  0  0  0  0  0  0  0  0  0  0  0
  -17.7777  -16.9783    8.0959 C   0  0  0  0  0  0  0  0  0  0  0  0
  -16.8517  -16.2442    7.8688 C   0  0  0  0  0  0  0  0  0  0  0  0
  -14.3950  -15.5977    7.6276 C   0  0  0  0  0  0  0  0  0  0  0  0
  -15.7641  -20.5391   10.2952 C   0  0  0  0  0  0  0  0  0  0  0  0
  -16.6654  -21.2041    8.0692 C   0  0  0  0  0  0  0  0  0  0  0  0
  -14.2470  -15.2013    6.1216 C   0  0  0  0  0  0  0  0  0  0  0  0
  -14.5514  -14.2770    8.5035 C   0  0  0  0  0  0  0  0  0  0  0  0
  1  2  1  0  0  0  0
  2  3  1  0  0  0  0
  2  4  1  0  0  0  0
  3  5  1  0  0  0  0
  3  6  1  0  0  0  0
  4  8  1  0  0  0  0
  4  9  1  0  0  0  0
  5  7  1  0  0  0  0
  6 10  1  0  0  0  0
  6 11  1  0  0  0  0
  7  8  1  0  0  0  0
  9 12  1  0  0  0  0
  9 13  1  0  0  0  0
M  END
>  <Score>
0.246466

>  <Energy>
-12.295942

>  <Confidence>
0.753534

>  <Binding_Affinity>
-9.570678

>  <IC50_nM>
96.4

$$$$
