ml_pose_22
  PandaDock generated structure

 13 13  0  0  0  0  0  0  0  0999 V2000
  -15.3588  -19.3986    8.9334 O   0  0  0  0  0  0  0  0  0  0  0  0
  -15.6323  -18.1906    8.3116 C   0  0  0  0  0  0  0  0  0  0  0  0
  -16.8677  -17.8539    8.1271 C   0  0  0  0  0  0  0  0  0  0  0  0
  -14.4857  -17.4471    8.2447 C   0  0  0  0  0  0  0  0  0  0  0  0
  -17.1152  -16.6398    7.5621 C   0  0  0  0  0  0  0  0  0  0  0  0
  -18.0212  -18.8542    8.3135 C   0  0  0  0  0  0  0  0  0  0  0  0
  -16.1003  -15.6886    7.1603 C   0  0  0  0  0  0  0  0  0  0  0  0
  -14.7798  -16.0423    7.6628 C   0  0  0  0  0  0  0  0  0  0  0  0
  -13.1733  -17.7785    8.6102 C   0  0  0  0  0  0  0  0  0  0  0  0
  -18.7989  -18.5770    9.5371 C   0  0  0  0  0  0  0  0  0  0  0  0
  -18.9410  -18.7781    7.0729 C   0  0  0  0  0  0  0  0  0  0  0  0
  -12.2986  -18.1352    7.3372 C   0  0  0  0  0  0  0  0  0  0  0  0
  -12.5271  -16.7162    9.4671 C   0  0  0  0  0  0  0  0  0  0  0  0
  1  2  1  0  0  0  0
  2  3  1  0  0  0  0
  2  4  1  0  0  0  0
  3  5  1  0  0  0  0
  3  6  1  0  0  0  0
  4  8  1  0  0  0  0
  4  9  1  0  0  0  0
  5  7  1  0  0  0  0
  6 10  1  0  0  0  0
  6 11  1  0  0  0  0
  7  8  1  0  0  0  0
  9 12  1  0  0  0  0
  9 13  1  0  0  0  0
M  END
>  <Score>
0.177335

>  <Energy>
-5.042407

>  <Confidence>
0.822665

>  <Binding_Affinity>
-3.000000

>  <IC50_nM>
6320605.5

$$$$
