ml_pose_6
  PandaDock generated structure

 13 13  0  0  0  0  0  0  0  0999 V2000
  -16.2258  -19.5975    8.2071 O   0  0  0  0  0  0  0  0  0  0  0  0
  -15.7869  -18.2265    8.1831 C   0  0  0  0  0  0  0  0  0  0  0  0
  -16.4644  -17.4248    9.0312 C   0  0  0  0  0  0  0  0  0  0  0  0
  -14.7642  -17.7602    7.3684 C   0  0  0  0  0  0  0  0  0  0  0  0
  -16.2770  -16.0473    8.9405 C   0  0  0  0  0  0  0  0  0  0  0  0
  -17.6551  -18.0135    9.9883 C   0  0  0  0  0  0  0  0  0  0  0  0
  -15.2742  -15.6092    8.0984 C   0  0  0  0  0  0  0  0  0  0  0  0
  -14.5631  -16.4251    7.3353 C   0  0  0  0  0  0  0  0  0  0  0  0
  -14.1546  -18.7367    6.3870 C   0  0  0  0  0  0  0  0  0  0  0  0
  -17.0552  -18.2705   11.3109 C   0  0  0  0  0  0  0  0  0  0  0  0
  -18.8239  -17.0813   10.0292 C   0  0  0  0  0  0  0  0  0  0  0  0
  -14.5117  -18.4434    4.9841 C   0  0  0  0  0  0  0  0  0  0  0  0
  -12.5438  -18.4639    6.4766 C   0  0  0  0  0  0  0  0  0  0  0  0
  1  2  1  0  0  0  0
  2  3  1  0  0  0  0
  2  4  1  0  0  0  0
  3  5  1  0  0  0  0
  3  6  1  0  0  0  0
  4  8  1  0  0  0  0
  4  9  1  0  0  0  0
  5  7  1  0  0  0  0
  6 10  1  0  0  0  0
  6 11  1  0  0  0  0
  7  8  1  0  0  0  0
  9 12  1  0  0  0  0
  9 13  1  0  0  0  0
M  END
>  <Score>
0.246972

>  <Energy>
-4.242874

>  <Confidence>
0.753028

>  <Binding_Affinity>
-3.000000

>  <IC50_nM>
6320605.5

$$$$
