ml_pose_26
  PandaDock generated structure

 13 13  0  0  0  0  0  0  0  0999 V2000
  -15.0497  -19.0884    6.9807 O   0  0  0  0  0  0  0  0  0  0  0  0
  -15.4713  -18.0927    7.7743 C   0  0  0  0  0  0  0  0  0  0  0  0
  -15.8401  -18.5721    9.0772 C   0  0  0  0  0  0  0  0  0  0  0  0
  -15.5420  -16.8025    7.4422 C   0  0  0  0  0  0  0  0  0  0  0  0
  -16.4173  -17.4812    9.8605 C   0  0  0  0  0  0  0  0  0  0  0  0
  -15.7797  -19.8705    9.5274 C   0  0  0  0  0  0  0  0  0  0  0  0
  -16.5382  -16.1956    9.5544 C   0  0  0  0  0  0  0  0  0  0  0  0
  -16.1563  -15.7740    8.2988 C   0  0  0  0  0  0  0  0  0  0  0  0
  -15.2536  -16.4148    5.9689 C   0  0  0  0  0  0  0  0  0  0  0  0
  -14.3832  -20.0944   10.3534 C   0  0  0  0  0  0  0  0  0  0  0  0
  -16.9169  -20.3342   10.4020 C   0  0  0  0  0  0  0  0  0  0  0  0
  -16.4894  -16.1791    5.0999 C   0  0  0  0  0  0  0  0  0  0  0  0
  -14.2623  -15.2005    6.0003 C   0  0  0  0  0  0  0  0  0  0  0  0
  1  2  1  0  0  0  0
  2  3  1  0  0  0  0
  2  4  1  0  0  0  0
  3  5  1  0  0  0  0
  3  6  1  0  0  0  0
  4  8  1  0  0  0  0
  4  9  1  0  0  0  0
  5  7  1  0  0  0  0
  6 10  1  0  0  0  0
  6 11  1  0  0  0  0
  7  8  1  0  0  0  0
  9 12  1  0  0  0  0
  9 13  1  0  0  0  0
M  END
>  <Score>
0.149065

>  <Energy>
-7.952157

>  <Confidence>
0.850935

>  <Binding_Affinity>
-6.796967

>  <IC50_nM>
10405.8

$$$$
