ml_pose_14
  PandaDock generated structure

 13 13  0  0  0  0  0  0  0  0999 V2000
  -14.7326  -16.1887    9.0748 O   0  0  0  0  0  0  0  0  0  0  0  0
  -15.4277  -17.1350    8.3812 C   0  0  0  0  0  0  0  0  0  0  0  0
  -16.7821  -17.1562    8.2748 C   0  0  0  0  0  0  0  0  0  0  0  0
  -14.6439  -18.3617    8.0569 C   0  0  0  0  0  0  0  0  0  0  0  0
  -17.3687  -18.3011    7.7379 C   0  0  0  0  0  0  0  0  0  0  0  0
  -17.5623  -15.9934    8.6249 C   0  0  0  0  0  0  0  0  0  0  0  0
  -16.7318  -19.3483    7.3191 C   0  0  0  0  0  0  0  0  0  0  0  0
  -15.4320  -19.4369    7.4254 C   0  0  0  0  0  0  0  0  0  0  0  0
  -13.2894  -18.3858    8.2332 C   0  0  0  0  0  0  0  0  0  0  0  0
  -17.9340  -15.0469    7.5390 C   0  0  0  0  0  0  0  0  0  0  0  0
  -18.8507  -16.4515    9.3529 C   0  0  0  0  0  0  0  0  0  0  0  0
  -12.7609  -19.4310    9.3338 C   0  0  0  0  0  0  0  0  0  0  0  0
  -12.5837  -18.8633    6.9861 C   0  0  0  0  0  0  0  0  0  0  0  0
  1  2  1  0  0  0  0
  2  3  1  0  0  0  0
  2  4  1  0  0  0  0
  3  5  1  0  0  0  0
  3  6  1  0  0  0  0
  4  8  1  0  0  0  0
  4  9  1  0  0  0  0
  5  7  1  0  0  0  0
  6 10  1  0  0  0  0
  6 11  1  0  0  0  0
  7  8  1  0  0  0  0
  9 12  1  0  0  0  0
  9 13  1  0  0  0  0
M  END
>  <Score>
0.267390

>  <Energy>
-5.992980

>  <Confidence>
0.732610

>  <Binding_Affinity>
-3.000000

>  <IC50_nM>
6320605.5

$$$$
