ml_pose_15
  PandaDock generated structure

 13 13  0  0  0  0  0  0  0  0999 V2000
  -13.8967  -18.5708    8.2899 O   0  0  0  0  0  0  0  0  0  0  0  0
  -15.2119  -17.9434    8.2415 C   0  0  0  0  0  0  0  0  0  0  0  0
  -15.5041  -16.9181    9.1272 C   0  0  0  0  0  0  0  0  0  0  0  0
  -16.1269  -18.3937    7.2525 C   0  0  0  0  0  0  0  0  0  0  0  0
  -16.7221  -16.3146    8.9983 C   0  0  0  0  0  0  0  0  0  0  0  0
  -14.4529  -16.4215   10.1495 C   0  0  0  0  0  0  0  0  0  0  0  0
  -17.6799  -16.7821    8.1250 C   0  0  0  0  0  0  0  0  0  0  0  0
  -17.3034  -17.7565    7.1435 C   0  0  0  0  0  0  0  0  0  0  0  0
  -15.7739  -19.6499    6.3295 C   0  0  0  0  0  0  0  0  0  0  0  0
  -13.8189  -15.1692    9.6218 C   0  0  0  0  0  0  0  0  0  0  0  0
  -15.0730  -16.2373   11.4819 C   0  0  0  0  0  0  0  0  0  0  0  0
  -16.4455  -20.8207    6.7288 C   0  0  0  0  0  0  0  0  0  0  0  0
  -16.0907  -19.1222    4.8507 C   0  0  0  0  0  0  0  0  0  0  0  0
  1  2  1  0  0  0  0
  2  3  1  0  0  0  0
  2  4  1  0  0  0  0
  3  5  1  0  0  0  0
  3  6  1  0  0  0  0
  4  8  1  0  0  0  0
  4  9  1  0  0  0  0
  5  7  1  0  0  0  0
  6 10  1  0  0  0  0
  6 11  1  0  0  0  0
  7  8  1  0  0  0  0
  9 12  1  0  0  0  0
  9 13  1  0  0  0  0
M  END
>  <Score>
0.255906

>  <Energy>
-4.031483

>  <Confidence>
0.744094

>  <Binding_Affinity>
-3.000000

>  <IC50_nM>
6320605.5

$$$$
