ml_pose_8
  PandaDock generated structure

 13 13  0  0  0  0  0  0  0  0999 V2000
  -14.3902  -19.2619    8.3584 O   0  0  0  0  0  0  0  0  0  0  0  0
  -15.4067  -18.1208    8.1883 C   0  0  0  0  0  0  0  0  0  0  0  0
  -15.3480  -17.1135    9.1206 C   0  0  0  0  0  0  0  0  0  0  0  0
  -16.2819  -18.0688    7.1687 C   0  0  0  0  0  0  0  0  0  0  0  0
  -16.2172  -16.2220    9.1291 C   0  0  0  0  0  0  0  0  0  0  0  0
  -14.3297  -17.1527   10.2953 C   0  0  0  0  0  0  0  0  0  0  0  0
  -17.1836  -16.0122    8.0765 C   0  0  0  0  0  0  0  0  0  0  0  0
  -17.1058  -17.0611    7.1254 C   0  0  0  0  0  0  0  0  0  0  0  0
  -16.1608  -19.2455    6.0290 C   0  0  0  0  0  0  0  0  0  0  0  0
  -13.1909  -16.3354   10.0955 C   0  0  0  0  0  0  0  0  0  0  0  0
  -15.1328  -16.8433   11.6795 C   0  0  0  0  0  0  0  0  0  0  0  0
  -17.3334  -20.1427    6.2968 C   0  0  0  0  0  0  0  0  0  0  0  0
  -16.0188  -18.5203    4.7768 C   0  0  0  0  0  0  0  0  0  0  0  0
  1  2  1  0  0  0  0
  2  3  1  0  0  0  0
  2  4  1  0  0  0  0
  3  5  1  0  0  0  0
  3  6  1  0  0  0  0
  4  8  1  0  0  0  0
  4  9  1  0  0  0  0
  5  7  1  0  0  0  0
  6 10  1  0  0  0  0
  6 11  1  0  0  0  0
  7  8  1  0  0  0  0
  9 12  1  0  0  0  0
  9 13  1  0  0  0  0
M  END
>  <Score>
0.314868

>  <Energy>
-4.432508

>  <Confidence>
0.685132

>  <Binding_Affinity>
-3.000000

>  <IC50_nM>
6320605.5

$$$$
