ml_pose_25
  PandaDock generated structure

 13 13  0  0  0  0  0  0  0  0999 V2000
  -17.5824  -17.7457    8.8354 O   0  0  0  0  0  0  0  0  0  0  0  0
  -16.2124  -17.7565    8.3266 C   0  0  0  0  0  0  0  0  0  0  0  0
  -15.9266  -16.8627    7.3759 C   0  0  0  0  0  0  0  0  0  0  0  0
  -15.2647  -18.5494    8.8669 C   0  0  0  0  0  0  0  0  0  0  0  0
  -14.6119  -16.9100    6.8449 C   0  0  0  0  0  0  0  0  0  0  0  0
  -16.9323  -15.9665    6.5655 C   0  0  0  0  0  0  0  0  0  0  0  0
  -13.6231  -17.6856    7.5100 C   0  0  0  0  0  0  0  0  0  0  0  0
  -13.9651  -18.5325    8.5186 C   0  0  0  0  0  0  0  0  0  0  0  0
  -15.7590  -19.3055   10.1425 C   0  0  0  0  0  0  0  0  0  0  0  0
  -16.8904  -14.4835    7.0995 C   0  0  0  0  0  0  0  0  0  0  0  0
  -16.7702  -16.1145    5.1667 C   0  0  0  0  0  0  0  0  0  0  0  0
  -15.7629  -20.9468    9.6962 C   0  0  0  0  0  0  0  0  0  0  0  0
  -14.7991  -19.2409   11.3913 C   0  0  0  0  0  0  0  0  0  0  0  0
  1  2  1  0  0  0  0
  2  3  1  0  0  0  0
  2  4  1  0  0  0  0
  3  5  1  0  0  0  0
  3  6  1  0  0  0  0
  4  8  1  0  0  0  0
  4  9  1  0  0  0  0
  5  7  1  0  0  0  0
  6 10  1  0  0  0  0
  6 11  1  0  0  0  0
  7  8  1  0  0  0  0
  9 12  1  0  0  0  0
  9 13  1  0  0  0  0
M  END
>  <Score>
-2.877365

>  <Energy>
-8.039077

>  <Confidence>
0.746985

>  <Binding_Affinity>
-10.888986

>  <IC50_nM>
10.4

$$$$
ml_pose_20
  PandaDock generated structure

 13 13  0  0  0  0  0  0  0  0999 V2000
  -15.7445  -19.5535    9.0351 O   0  0  0  0  0  0  0  0  0  0  0  0
  -15.6420  -18.2401    8.3498 C   0  0  0  0  0  0  0  0  0  0  0  0
  -16.1685  -18.0419    7.1625 C   0  0  0  0  0  0  0  0  0  0  0  0
  -15.1624  -17.3172    9.1509 C   0  0  0  0  0  0  0  0  0  0  0  0
  -16.1486  -16.7046    6.5818 C   0  0  0  0  0  0  0  0  0  0  0  0
  -16.7513  -19.1691    6.3751 C   0  0  0  0  0  0  0  0  0  0  0  0
  -15.6016  -15.6370    7.3916 C   0  0  0  0  0  0  0  0  0  0  0  0
  -15.2225  -15.8878    8.6009 C   0  0  0  0  0  0  0  0  0  0  0  0
  -14.5906  -17.4750   10.4791 C   0  0  0  0  0  0  0  0  0  0  0  0
  -18.2728  -19.1793    6.3869 C   0  0  0  0  0  0  0  0  0  0  0  0
  -16.3637  -19.1132    4.8015 C   0  0  0  0  0  0  0  0  0  0  0  0
  -13.1030  -17.3791   10.5287 C   0  0  0  0  0  0  0  0  0  0  0  0
  -15.3285  -16.4023   11.4961 C   0  0  0  0  0  0  0  0  0  0  0  0
  1  2  1  0  0  0  0
  2  3  1  0  0  0  0
  2  4  1  0  0  0  0
  3  5  1  0  0  0  0
  3  6  1  0  0  0  0
  4  8  1  0  0  0  0
  4  9  1  0  0  0  0
  5  7  1  0  0  0  0
  6 10  1  0  0  0  0
  6 11  1  0  0  0  0
  7  8  1  0  0  0  0
  9 12  1  0  0  0  0
  9 13  1  0  0  0  0
M  END
>  <Score>
-2.415303

>  <Energy>
-7.272688

>  <Confidence>
0.550558

>  <Binding_Affinity>
-8.878441

>  <IC50_nM>
310.0

$$$$
ml_pose_12
  PandaDock generated structure

 13 13  0  0  0  0  0  0  0  0999 V2000
  -15.6994  -19.3396    7.1897 O   0  0  0  0  0  0  0  0  0  0  0  0
  -15.7733  -18.1641    7.7791 C   0  0  0  0  0  0  0  0  0  0  0  0
  -16.8429  -17.3183    7.9317 C   0  0  0  0  0  0  0  0  0  0  0  0
  -14.5140  -17.9033    8.6753 C   0  0  0  0  0  0  0  0  0  0  0  0
  -16.7789  -16.1686    8.5372 C   0  0  0  0  0  0  0  0  0  0  0  0
  -18.0441  -17.7854    6.9671 C   0  0  0  0  0  0  0  0  0  0  0  0
  -15.6364  -15.8232    9.3378 C   0  0  0  0  0  0  0  0  0  0  0  0
  -14.5086  -16.6986    9.2814 C   0  0  0  0  0  0  0  0  0  0  0  0
  -13.3695  -18.7985    8.5178 C   0  0  0  0  0  0  0  0  0  0  0  0
  -19.1574  -18.3097    8.0116 C   0  0  0  0  0  0  0  0  0  0  0  0
  -18.5229  -16.5070    6.3976 C   0  0  0  0  0  0  0  0  0  0  0  0
  -12.3013  -18.2929    7.6669 C   0  0  0  0  0  0  0  0  0  0  0  0
  -12.9512  -18.9908   10.0468 C   0  0  0  0  0  0  0  0  0  0  0  0
  1  2  1  0  0  0  0
  2  3  1  0  0  0  0
  2  4  1  0  0  0  0
  3  5  1  0  0  0  0
  3  6  1  0  0  0  0
  4  8  1  0  0  0  0
  4  9  1  0  0  0  0
  5  7  1  0  0  0  0
  6 10  1  0  0  0  0
  6 11  1  0  0  0  0
  7  8  1  0  0  0  0
  9 12  1  0  0  0  0
  9 13  1  0  0  0  0
M  END
>  <Score>
-2.253556

>  <Energy>
-6.277792

>  <Confidence>
0.782641

>  <Binding_Affinity>
-7.831435

>  <IC50_nM>
1815.2

$$$$
ml_pose_17
  PandaDock generated structure

 13 13  0  0  0  0  0  0  0  0999 V2000
  -15.9603  -18.4669    9.9670 O   0  0  0  0  0  0  0  0  0  0  0  0
  -15.6967  -17.9761    8.8069 C   0  0  0  0  0  0  0  0  0  0  0  0
  -15.6988  -18.7885    7.5331 C   0  0  0  0  0  0  0  0  0  0  0  0
  -15.5303  -16.6055    8.5309 C   0  0  0  0  0  0  0  0  0  0  0  0
  -15.5901  -18.2269    6.4552 C   0  0  0  0  0  0  0  0  0  0  0  0
  -16.0023  -20.2656    7.8114 C   0  0  0  0  0  0  0  0  0  0  0  0
  -15.3395  -16.9438    6.1720 C   0  0  0  0  0  0  0  0  0  0  0  0
  -15.4329  -16.0124    7.2897 C   0  0  0  0  0  0  0  0  0  0  0  0
  -15.5814  -15.6579    9.7106 C   0  0  0  0  0  0  0  0  0  0  0  0
  -17.4215  -20.5857    7.4358 C   0  0  0  0  0  0  0  0  0  0  0  0
  -14.9656  -20.9943    6.9920 C   0  0  0  0  0  0  0  0  0  0  0  0
  -14.3332  -15.1905   10.0768 C   0  0  0  0  0  0  0  0  0  0  0  0
  -16.5473  -14.3858    9.5586 C   0  0  0  0  0  0  0  0  0  0  0  0
  1  2  1  0  0  0  0
  2  3  1  0  0  0  0
  2  4  1  0  0  0  0
  3  5  1  0  0  0  0
  3  6  1  0  0  0  0
  4  8  1  0  0  0  0
  4  9  1  0  0  0  0
  5  7  1  0  0  0  0
  6 10  1  0  0  0  0
  6 11  1  0  0  0  0
  7  8  1  0  0  0  0
  9 12  1  0  0  0  0
  9 13  1  0  0  0  0
M  END
>  <Score>
-2.016392

>  <Energy>
-9.350050

>  <Confidence>
0.605227

>  <Binding_Affinity>
-7.391566

>  <IC50_nM>
3814.1

$$$$
ml_pose_42
  PandaDock generated structure

 13 13  0  0  0  0  0  0  0  0999 V2000
  -15.8797  -18.4507    6.3687 O   0  0  0  0  0  0  0  0  0  0  0  0
  -15.8034  -17.9190    7.7066 C   0  0  0  0  0  0  0  0  0  0  0  0
  -14.7497  -18.3512    8.4885 C   0  0  0  0  0  0  0  0  0  0  0  0
  -16.5543  -16.9539    8.1148 C   0  0  0  0  0  0  0  0  0  0  0  0
  -14.5441  -17.8608    9.6975 C   0  0  0  0  0  0  0  0  0  0  0  0
  -13.7313  -19.4490    7.9557 C   0  0  0  0  0  0  0  0  0  0  0  0
  -15.5272  -16.9661   10.1017 C   0  0  0  0  0  0  0  0  0  0  0  0
  -16.5242  -16.4927    9.3689 C   0  0  0  0  0  0  0  0  0  0  0  0
  -17.8088  -16.3895    7.2066 C   0  0  0  0  0  0  0  0  0  0  0  0
  -12.3897  -18.7166    7.5038 C   0  0  0  0  0  0  0  0  0  0  0  0
  -13.5471  -20.5196    8.9903 C   0  0  0  0  0  0  0  0  0  0  0  0
  -19.1151  -17.0887    7.6199 C   0  0  0  0  0  0  0  0  0  0  0  0
  -17.9253  -14.9423    7.2170 C   0  0  0  0  0  0  0  0  0  0  0  0
  1  2  1  0  0  0  0
  2  3  1  0  0  0  0
  2  4  1  0  0  0  0
  3  5  1  0  0  0  0
  3  6  1  0  0  0  0
  4  8  1  0  0  0  0
  4  9  1  0  0  0  0
  5  7  1  0  0  0  0
  6 10  1  0  0  0  0
  6 11  1  0  0  0  0
  7  8  1  0  0  0  0
  9 12  1  0  0  0  0
  9 13  1  0  0  0  0
M  END
>  <Score>
-1.987708

>  <Energy>
-6.934824

>  <Confidence>
0.848656

>  <Binding_Affinity>
-6.705870

>  <IC50_nM>
12135.5

$$$$
ml_pose_5
  PandaDock generated structure

 13 13  0  0  0  0  0  0  0  0999 V2000
  -16.9243  -18.7448    7.1414 O   0  0  0  0  0  0  0  0  0  0  0  0
  -16.0212  -18.0211    7.8022 C   0  0  0  0  0  0  0  0  0  0  0  0
  -16.0659  -18.1566    9.1327 C   0  0  0  0  0  0  0  0  0  0  0  0
  -15.2112  -17.0797    7.2528 C   0  0  0  0  0  0  0  0  0  0  0  0
  -15.2459  -17.5140    9.9930 C   0  0  0  0  0  0  0  0  0  0  0  0
  -16.8649  -19.1824    9.8646 C   0  0  0  0  0  0  0  0  0  0  0  0
  -14.3932  -16.4832    9.4216 C   0  0  0  0  0  0  0  0  0  0  0  0
  -14.3209  -16.2752    8.0344 C   0  0  0  0  0  0  0  0  0  0  0  0
  -15.3494  -16.9246    5.7736 C   0  0  0  0  0  0  0  0  0  0  0  0
  -16.3068  -20.4747   10.1242 C   0  0  0  0  0  0  0  0  0  0  0  0
  -17.6045  -18.6726   11.1544 C   0  0  0  0  0  0  0  0  0  0  0  0
  -15.9259  -15.5932    5.3876 C   0  0  0  0  0  0  0  0  0  0  0  0
  -13.8657  -16.9781    5.2575 C   0  0  0  0  0  0  0  0  0  0  0  0
  1  2  1  0  0  0  0
  2  3  1  0  0  0  0
  2  4  1  0  0  0  0
  3  5  1  0  0  0  0
  3  6  1  0  0  0  0
  4  8  1  0  0  0  0
  4  9  1  0  0  0  0
  5  7  1  0  0  0  0
  6 10  1  0  0  0  0
  6 11  1  0  0  0  0
  7  8  1  0  0  0  0
  9 12  1  0  0  0  0
  9 13  1  0  0  0  0
M  END
>  <Score>
-1.974727

>  <Energy>
-5.233786

>  <Confidence>
0.627132

>  <Binding_Affinity>
-6.557157

>  <IC50_nM>
15598.3

$$$$
ml_pose_14
  PandaDock generated structure

 13 13  0  0  0  0  0  0  0  0999 V2000
  -15.4012  -17.1813    9.9930 O   0  0  0  0  0  0  0  0  0  0  0  0
  -15.5836  -17.5548    8.7618 C   0  0  0  0  0  0  0  0  0  0  0  0
  -16.5056  -16.7996    7.9577 C   0  0  0  0  0  0  0  0  0  0  0  0
  -14.9266  -18.5925    8.2415 C   0  0  0  0  0  0  0  0  0  0  0  0
  -16.7467  -17.1992    6.6668 C   0  0  0  0  0  0  0  0  0  0  0  0
  -17.1752  -15.6648    8.4917 C   0  0  0  0  0  0  0  0  0  0  0  0
  -16.1151  -18.3425    6.1788 C   0  0  0  0  0  0  0  0  0  0  0  0
  -15.1876  -19.0110    6.9214 C   0  0  0  0  0  0  0  0  0  0  0  0
  -13.9336  -19.3446    9.1564 C   0  0  0  0  0  0  0  0  0  0  0  0
  -16.6673  -14.4081    8.0246 C   0  0  0  0  0  0  0  0  0  0  0  0
  -18.8619  -15.7130    8.1215 C   0  0  0  0  0  0  0  0  0  0  0  0
  -14.3526  -20.8295    9.4701 C   0  0  0  0  0  0  0  0  0  0  0  0
  -12.6430  -19.4591    8.3546 C   0  0  0  0  0  0  0  0  0  0  0  0
  1  2  1  0  0  0  0
  2  3  1  0  0  0  0
  2  4  1  0  0  0  0
  3  5  1  0  0  0  0
  3  6  1  0  0  0  0
  4  8  1  0  0  0  0
  4  9  1  0  0  0  0
  5  7  1  0  0  0  0
  6 10  1  0  0  0  0
  6 11  1  0  0  0  0
  7  8  1  0  0  0  0
  9 12  1  0  0  0  0
  9 13  1  0  0  0  0
M  END
>  <Score>
-1.935305

>  <Energy>
-6.200640

>  <Confidence>
0.637826

>  <Binding_Affinity>
-6.523313

>  <IC50_nM>
16515.3

$$$$
ml_pose_39
  PandaDock generated structure

 13 13  0  0  0  0  0  0  0  0999 V2000
  -14.9515  -19.5345    8.1735 O   0  0  0  0  0  0  0  0  0  0  0  0
  -15.5884  -18.2758    8.1403 C   0  0  0  0  0  0  0  0  0  0  0  0
  -15.9224  -17.5418    7.0756 C   0  0  0  0  0  0  0  0  0  0  0  0
  -15.5911  -17.6318    9.4210 C   0  0  0  0  0  0  0  0  0  0  0  0
  -16.2929  -16.3064    7.0561 C   0  0  0  0  0  0  0  0  0  0  0  0
  -15.7913  -18.3072    5.5975 C   0  0  0  0  0  0  0  0  0  0  0  0
  -16.4648  -15.6515    8.1713 C   0  0  0  0  0  0  0  0  0  0  0  0
  -16.0490  -16.2530    9.5849 C   0  0  0  0  0  0  0  0  0  0  0  0
  -15.1844  -18.3279   10.5893 C   0  0  0  0  0  0  0  0  0  0  0  0
  -17.0827  -18.8901    5.1480 C   0  0  0  0  0  0  0  0  0  0  0  0
  -15.0694  -17.4594    4.5720 C   0  0  0  0  0  0  0  0  0  0  0  0
  -13.8522  -17.7340   11.1314 C   0  0  0  0  0  0  0  0  0  0  0  0
  -16.2597  -18.1866   11.6792 C   0  0  0  0  0  0  0  0  0  0  0  0
  1  2  1  0  0  0  0
  2  3  1  0  0  0  0
  2  4  1  0  0  0  0
  3  5  1  0  0  0  0
  3  6  1  0  0  0  0
  4  8  1  0  0  0  0
  4  9  1  0  0  0  0
  5  7  1  0  0  0  0
  6 10  1  0  0  0  0
  6 11  1  0  0  0  0
  7  8  1  0  0  0  0
  9 12  1  0  0  0  0
  9 13  1  0  0  0  0
M  END
>  <Score>
-1.935175

>  <Energy>
-8.764946

>  <Confidence>
0.865241

>  <Binding_Affinity>
-6.742312

>  <IC50_nM>
11411.5

$$$$
ml_pose_36
  PandaDock generated structure

 13 13  0  0  0  0  0  0  0  0999 V2000
  -16.4759  -19.4647    8.0659 O   0  0  0  0  0  0  0  0  0  0  0  0
  -15.9209  -18.2454    8.1967 C   0  0  0  0  0  0  0  0  0  0  0  0
  -15.8385  -17.4537    6.9470 C   0  0  0  0  0  0  0  0  0  0  0  0
  -15.3702  -17.9114    9.4122 C   0  0  0  0  0  0  0  0  0  0  0  0
  -15.5159  -16.1258    7.0604 C   0  0  0  0  0  0  0  0  0  0  0  0
  -16.4896  -17.8826    5.7070 C   0  0  0  0  0  0  0  0  0  0  0  0
  -14.8224  -15.7023    8.3243 C   0  0  0  0  0  0  0  0  0  0  0  0
  -14.8924  -16.5853    9.4808 C   0  0  0  0  0  0  0  0  0  0  0  0
  -15.3128  -18.6616   10.5445 C   0  0  0  0  0  0  0  0  0  0  0  0
  -17.8330  -17.3567    5.4327 C   0  0  0  0  0  0  0  0  0  0  0  0
  -15.5612  -17.4914    4.5268 C   0  0  0  0  0  0  0  0  0  0  0  0
  -14.0821  -19.3346   10.8783 C   0  0  0  0  0  0  0  0  0  0  0  0
  -15.9852  -17.8846   11.7634 C   0  0  0  0  0  0  0  0  0  0  0  0
  1  2  1  0  0  0  0
  2  3  1  0  0  0  0
  2  4  1  0  0  0  0
  3  5  1  0  0  0  0
  3  6  1  0  0  0  0
  4  8  1  0  0  0  0
  4  9  1  0  0  0  0
  5  7  1  0  0  0  0
  6 10  1  0  0  0  0
  6 11  1  0  0  0  0
  7  8  1  0  0  0  0
  9 12  1  0  0  0  0
  9 13  1  0  0  0  0
M  END
>  <Score>
-1.924959

>  <Energy>
-6.108056

>  <Confidence>
0.587023

>  <Binding_Affinity>
-6.502387

>  <IC50_nM>
17109.1

$$$$
ml_pose_38
  PandaDock generated structure

 13 13  0  0  0  0  0  0  0  0999 V2000
  -14.4589  -16.3341    7.4615 O   0  0  0  0  0  0  0  0  0  0  0  0
  -15.3717  -17.2524    7.9516 C   0  0  0  0  0  0  0  0  0  0  0  0
  -15.1196  -18.6528    7.6491 C   0  0  0  0  0  0  0  0  0  0  0  0
  -16.3574  -16.9495    8.7657 C   0  0  0  0  0  0  0  0  0  0  0  0
  -15.9858  -19.5678    8.1876 C   0  0  0  0  0  0  0  0  0  0  0  0
  -13.8687  -19.0943    6.7668 C   0  0  0  0  0  0  0  0  0  0  0  0
  -17.0229  -19.1893    9.0050 C   0  0  0  0  0  0  0  0  0  0  0  0
  -17.3544  -17.9291    9.2789 C   0  0  0  0  0  0  0  0  0  0  0  0
  -16.6522  -15.4541    9.1133 C   0  0  0  0  0  0  0  0  0  0  0  0
  -12.8070  -19.4461    7.6166 C   0  0  0  0  0  0  0  0  0  0  0  0
  -14.3285  -19.9655    5.6802 C   0  0  0  0  0  0  0  0  0  0  0  0
  -17.8911  -14.9829    8.3275 C   0  0  0  0  0  0  0  0  0  0  0  0
  -16.8818  -15.2820   10.5363 C   0  0  0  0  0  0  0  0  0  0  0  0
  1  2  1  0  0  0  0
  2  3  1  0  0  0  0
  2  4  1  0  0  0  0
  3  5  1  0  0  0  0
  3  6  1  0  0  0  0
  4  8  1  0  0  0  0
  4  9  1  0  0  0  0
  5  7  1  0  0  0  0
  6 10  1  0  0  0  0
  6 11  1  0  0  0  0
  7  8  1  0  0  0  0
  9 12  1  0  0  0  0
  9 13  1  0  0  0  0
M  END
>  <Score>
-1.920884

>  <Energy>
-5.336599

>  <Confidence>
0.786445

>  <Binding_Affinity>
-6.212274

>  <IC50_nM>
27919.2

$$$$
ml_pose_16
  PandaDock generated structure

 13 13  0  0  0  0  0  0  0  0999 V2000
  -15.0811  -16.9702    9.8584 O   0  0  0  0  0  0  0  0  0  0  0  0
  -15.5722  -17.5375    8.6719 C   0  0  0  0  0  0  0  0  0  0  0  0
  -15.4326  -18.8676    8.4529 C   0  0  0  0  0  0  0  0  0  0  0  0
  -15.9923  -16.6055    7.6727 C   0  0  0  0  0  0  0  0  0  0  0  0
  -15.8553  -19.3854    7.3211 C   0  0  0  0  0  0  0  0  0  0  0  0
  -14.9763  -19.7934    9.6005 C   0  0  0  0  0  0  0  0  0  0  0  0
  -16.3394  -18.4537    6.2586 C   0  0  0  0  0  0  0  0  0  0  0  0
  -16.3792  -17.1493    6.4599 C   0  0  0  0  0  0  0  0  0  0  0  0
  -15.8940  -15.1251    7.8288 C   0  0  0  0  0  0  0  0  0  0  0  0
  -16.2172  -20.3873   10.3541 C   0  0  0  0  0  0  0  0  0  0  0  0
  -14.1151  -20.8546    9.0267 C   0  0  0  0  0  0  0  0  0  0  0  0
  -14.8773  -14.3894    7.2605 C   0  0  0  0  0  0  0  0  0  0  0  0
  -17.3682  -14.5811    7.5739 C   0  0  0  0  0  0  0  0  0  0  0  0
  1  2  1  0  0  0  0
  2  3  1  0  0  0  0
  2  4  1  0  0  0  0
  3  5  1  0  0  0  0
  3  6  1  0  0  0  0
  4  8  1  0  0  0  0
  4  9  1  0  0  0  0
  5  7  1  0  0  0  0
  6 10  1  0  0  0  0
  6 11  1  0  0  0  0
  7  8  1  0  0  0  0
  9 12  1  0  0  0  0
  9 13  1  0  0  0  0
M  END
>  <Score>
-1.854703

>  <Energy>
-5.471150

>  <Confidence>
0.599400

>  <Binding_Affinity>
-6.084131

>  <IC50_nM>
34661.1

$$$$
ml_pose_2
  PandaDock generated structure

 13 13  0  0  0  0  0  0  0  0999 V2000
  -16.9802  -17.1312    6.7675 O   0  0  0  0  0  0  0  0  0  0  0  0
  -16.0973  -17.5766    7.8834 C   0  0  0  0  0  0  0  0  0  0  0  0
  -16.0112  -18.7940    8.2322 C   0  0  0  0  0  0  0  0  0  0  0  0
  -15.2247  -16.7142    8.2575 C   0  0  0  0  0  0  0  0  0  0  0  0
  -15.1808  -19.1899    9.2450 C   0  0  0  0  0  0  0  0  0  0  0  0
  -17.1003  -19.8176    7.6963 C   0  0  0  0  0  0  0  0  0  0  0  0
  -14.2790  -18.2720    9.6323 C   0  0  0  0  0  0  0  0  0  0  0  0
  -14.2300  -16.9594    9.1731 C   0  0  0  0  0  0  0  0  0  0  0  0
  -15.1805  -15.2047    7.7327 C   0  0  0  0  0  0  0  0  0  0  0  0
  -16.5115  -20.8461    6.6163 C   0  0  0  0  0  0  0  0  0  0  0  0
  -17.7956  -20.6638    8.9233 C   0  0  0  0  0  0  0  0  0  0  0  0
  -15.7100  -14.1745    8.9034 C   0  0  0  0  0  0  0  0  0  0  0  0
  -13.7990  -14.7559    7.2772 C   0  0  0  0  0  0  0  0  0  0  0  0
  1  2  1  0  0  0  0
  2  3  1  0  0  0  0
  2  4  1  0  0  0  0
  3  5  1  0  0  0  0
  3  6  1  0  0  0  0
  4  8  1  0  0  0  0
  4  9  1  0  0  0  0
  5  7  1  0  0  0  0
  6 10  1  0  0  0  0
  6 11  1  0  0  0  0
  7  8  1  0  0  0  0
  9 12  1  0  0  0  0
  9 13  1  0  0  0  0
M  END
>  <Score>
-1.804450

>  <Energy>
-5.378484

>  <Confidence>
0.727804

>  <Binding_Affinity>
-5.748831

>  <IC50_nM>
61044.2

$$$$
ml_pose_21
  PandaDock generated structure

 13 13  0  0  0  0  0  0  0  0999 V2000
  -14.2323  -16.3808    8.3547 O   0  0  0  0  0  0  0  0  0  0  0  0
  -15.2336  -17.3726    8.2595 C   0  0  0  0  0  0  0  0  0  0  0  0
  -15.2723  -18.4693    9.0092 C   0  0  0  0  0  0  0  0  0  0  0  0
  -16.3354  -17.1567    7.3899 C   0  0  0  0  0  0  0  0  0  0  0  0
  -16.2508  -19.3533    8.9235 C   0  0  0  0  0  0  0  0  0  0  0  0
  -13.9736  -18.7278    9.8308 C   0  0  0  0  0  0  0  0  0  0  0  0
  -17.3049  -19.1567    7.9760 C   0  0  0  0  0  0  0  0  0  0  0  0
  -17.3832  -18.0142    7.2701 C   0  0  0  0  0  0  0  0  0  0  0  0
  -16.4435  -15.7867    6.4796 C   0  0  0  0  0  0  0  0  0  0  0  0
  -14.3188  -18.5195   11.3306 C   0  0  0  0  0  0  0  0  0  0  0  0
  -13.4447  -20.1298    9.7111 C   0  0  0  0  0  0  0  0  0  0  0  0
  -16.1153  -15.9677    5.0614 C   0  0  0  0  0  0  0  0  0  0  0  0
  -17.7917  -15.0650    6.7436 C   0  0  0  0  0  0  0  0  0  0  0  0
  1  2  1  0  0  0  0
  2  3  1  0  0  0  0
  2  4  1  0  0  0  0
  3  5  1  0  0  0  0
  3  6  1  0  0  0  0
  4  8  1  0  0  0  0
  4  9  1  0  0  0  0
  5  7  1  0  0  0  0
  6 10  1  0  0  0  0
  6 11  1  0  0  0  0
  7  8  1  0  0  0  0
  9 12  1  0  0  0  0
  9 13  1  0  0  0  0
M  END
>  <Score>
-1.791677

>  <Energy>
-5.708767

>  <Confidence>
0.848439

>  <Binding_Affinity>
-5.650353

>  <IC50_nM>
72083.7

$$$$
ml_pose_10
  PandaDock generated structure

 13 13  0  0  0  0  0  0  0  0999 V2000
  -13.7304  -18.0994    8.5391 O   0  0  0  0  0  0  0  0  0  0  0  0
  -15.1686  -17.8019    8.2769 C   0  0  0  0  0  0  0  0  0  0  0  0
  -15.5358  -16.4986    8.0948 C   0  0  0  0  0  0  0  0  0  0  0  0
  -16.0481  -18.8655    8.2196 C   0  0  0  0  0  0  0  0  0  0  0  0
  -16.9125  -16.2412    7.8566 C   0  0  0  0  0  0  0  0  0  0  0  0
  -14.4816  -15.2765    8.0963 C   0  0  0  0  0  0  0  0  0  0  0  0
  -17.8565  -17.3449    7.7926 C   0  0  0  0  0  0  0  0  0  0  0  0
  -17.3218  -18.4965    8.0220 C   0  0  0  0  0  0  0  0  0  0  0  0
  -15.6513  -20.3419    8.5305 C   0  0  0  0  0  0  0  0  0  0  0  0
  -14.1536  -15.0220    6.6754 C   0  0  0  0  0  0  0  0  0  0  0  0
  -15.0939  -14.2407    8.9628 C   0  0  0  0  0  0  0  0  0  0  0  0
  -16.0825  -20.8036    9.9399 C   0  0  0  0  0  0  0  0  0  0  0  0
  -16.0632  -21.0673    7.3336 C   0  0  0  0  0  0  0  0  0  0  0  0
  1  2  1  0  0  0  0
  2  3  1  0  0  0  0
  2  4  1  0  0  0  0
  3  5  1  0  0  0  0
  3  6  1  0  0  0  0
  4  8  1  0  0  0  0
  4  9  1  0  0  0  0
  5  7  1  0  0  0  0
  6 10  1  0  0  0  0
  6 11  1  0  0  0  0
  7  8  1  0  0  0  0
  9 12  1  0  0  0  0
  9 13  1  0  0  0  0
M  END
>  <Score>
-1.777433

>  <Energy>
-5.950070

>  <Confidence>
0.612683

>  <Binding_Affinity>
-5.805824

>  <IC50_nM>
55445.2

$$$$
ml_pose_6
  PandaDock generated structure

 13 13  0  0  0  0  0  0  0  0999 V2000
  -13.8879  -18.0359    7.4066 O   0  0  0  0  0  0  0  0  0  0  0  0
  -15.1809  -17.7799    8.0032 C   0  0  0  0  0  0  0  0  0  0  0  0
  -15.3510  -17.7986    9.3803 C   0  0  0  0  0  0  0  0  0  0  0  0
  -16.2428  -17.5667    7.1219 C   0  0  0  0  0  0  0  0  0  0  0  0
  -16.6407  -17.5923    9.8142 C   0  0  0  0  0  0  0  0  0  0  0  0
  -14.2048  -18.0672   10.3244 C   0  0  0  0  0  0  0  0  0  0  0  0
  -17.6665  -17.3137    8.9520 C   0  0  0  0  0  0  0  0  0  0  0  0
  -17.5350  -17.4047    7.6329 C   0  0  0  0  0  0  0  0  0  0  0  0
  -16.0389  -17.5609    5.5916 C   0  0  0  0  0  0  0  0  0  0  0  0
  -13.6042  -16.7340   10.7608 C   0  0  0  0  0  0  0  0  0  0  0  0
  -14.5582  -19.0004   11.4549 C   0  0  0  0  0  0  0  0  0  0  0  0
  -16.5328  -18.9138    4.8835 C   0  0  0  0  0  0  0  0  0  0  0  0
  -16.6563  -16.3320    5.0137 C   0  0  0  0  0  0  0  0  0  0  0  0
  1  2  1  0  0  0  0
  2  3  1  0  0  0  0
  2  4  1  0  0  0  0
  3  5  1  0  0  0  0
  3  6  1  0  0  0  0
  4  8  1  0  0  0  0
  4  9  1  0  0  0  0
  5  7  1  0  0  0  0
  6 10  1  0  0  0  0
  6 11  1  0  0  0  0
  7  8  1  0  0  0  0
  9 12  1  0  0  0  0
  9 13  1  0  0  0  0
M  END
>  <Score>
-1.740057

>  <Energy>
-5.973956

>  <Confidence>
0.822028

>  <Binding_Affinity>
-5.483147

>  <IC50_nM>
95590.0

$$$$
