ml_pose_38
  PandaDock generated structure

 13 13  0  0  0  0  0  0  0  0999 V2000
  -14.4589  -16.3341    7.4615 O   0  0  0  0  0  0  0  0  0  0  0  0
  -15.3717  -17.2524    7.9516 C   0  0  0  0  0  0  0  0  0  0  0  0
  -15.1196  -18.6528    7.6491 C   0  0  0  0  0  0  0  0  0  0  0  0
  -16.3574  -16.9495    8.7657 C   0  0  0  0  0  0  0  0  0  0  0  0
  -15.9858  -19.5678    8.1876 C   0  0  0  0  0  0  0  0  0  0  0  0
  -13.8687  -19.0943    6.7668 C   0  0  0  0  0  0  0  0  0  0  0  0
  -17.0229  -19.1893    9.0050 C   0  0  0  0  0  0  0  0  0  0  0  0
  -17.3544  -17.9291    9.2789 C   0  0  0  0  0  0  0  0  0  0  0  0
  -16.6522  -15.4541    9.1133 C   0  0  0  0  0  0  0  0  0  0  0  0
  -12.8070  -19.4461    7.6166 C   0  0  0  0  0  0  0  0  0  0  0  0
  -14.3285  -19.9655    5.6802 C   0  0  0  0  0  0  0  0  0  0  0  0
  -17.8911  -14.9829    8.3275 C   0  0  0  0  0  0  0  0  0  0  0  0
  -16.8818  -15.2820   10.5363 C   0  0  0  0  0  0  0  0  0  0  0  0
  1  2  1  0  0  0  0
  2  3  1  0  0  0  0
  2  4  1  0  0  0  0
  3  5  1  0  0  0  0
  3  6  1  0  0  0  0
  4  8  1  0  0  0  0
  4  9  1  0  0  0  0
  5  7  1  0  0  0  0
  6 10  1  0  0  0  0
  6 11  1  0  0  0  0
  7  8  1  0  0  0  0
  9 12  1  0  0  0  0
  9 13  1  0  0  0  0
M  END
>  <Score>
-1.920884

>  <Energy>
-5.336599

>  <Confidence>
0.786445

>  <Binding_Affinity>
-8.075957

>  <IC50_nM>
1201.4

$$$$
