ml_pose_12
  PandaDock generated structure

 13 13  0  0  0  0  0  0  0  0999 V2000
  -15.6994  -19.3396    7.1897 O   0  0  0  0  0  0  0  0  0  0  0  0
  -15.7733  -18.1641    7.7791 C   0  0  0  0  0  0  0  0  0  0  0  0
  -16.8429  -17.3183    7.9317 C   0  0  0  0  0  0  0  0  0  0  0  0
  -14.5140  -17.9033    8.6753 C   0  0  0  0  0  0  0  0  0  0  0  0
  -16.7789  -16.1686    8.5372 C   0  0  0  0  0  0  0  0  0  0  0  0
  -18.0441  -17.7854    6.9671 C   0  0  0  0  0  0  0  0  0  0  0  0
  -15.6364  -15.8232    9.3378 C   0  0  0  0  0  0  0  0  0  0  0  0
  -14.5086  -16.6986    9.2814 C   0  0  0  0  0  0  0  0  0  0  0  0
  -13.3695  -18.7985    8.5178 C   0  0  0  0  0  0  0  0  0  0  0  0
  -19.1574  -18.3097    8.0116 C   0  0  0  0  0  0  0  0  0  0  0  0
  -18.5229  -16.5070    6.3976 C   0  0  0  0  0  0  0  0  0  0  0  0
  -12.3013  -18.2929    7.6669 C   0  0  0  0  0  0  0  0  0  0  0  0
  -12.9512  -18.9908   10.0468 C   0  0  0  0  0  0  0  0  0  0  0  0
  1  2  1  0  0  0  0
  2  3  1  0  0  0  0
  2  4  1  0  0  0  0
  3  5  1  0  0  0  0
  3  6  1  0  0  0  0
  4  8  1  0  0  0  0
  4  9  1  0  0  0  0
  5  7  1  0  0  0  0
  6 10  1  0  0  0  0
  6 11  1  0  0  0  0
  7  8  1  0  0  0  0
  9 12  1  0  0  0  0
  9 13  1  0  0  0  0
M  END
>  <Score>
-2.253556

>  <Energy>
-6.277792

>  <Confidence>
0.782641

>  <Binding_Affinity>
-10.180865

>  <IC50_nM>
34.4

$$$$
