ml_pose_6
  PandaDock generated structure

 13 13  0  0  0  0  0  0  0  0999 V2000
  -13.8879  -18.0359    7.4066 O   0  0  0  0  0  0  0  0  0  0  0  0
  -15.1809  -17.7799    8.0032 C   0  0  0  0  0  0  0  0  0  0  0  0
  -15.3510  -17.7986    9.3803 C   0  0  0  0  0  0  0  0  0  0  0  0
  -16.2428  -17.5667    7.1219 C   0  0  0  0  0  0  0  0  0  0  0  0
  -16.6407  -17.5923    9.8142 C   0  0  0  0  0  0  0  0  0  0  0  0
  -14.2048  -18.0672   10.3244 C   0  0  0  0  0  0  0  0  0  0  0  0
  -17.6665  -17.3137    8.9520 C   0  0  0  0  0  0  0  0  0  0  0  0
  -17.5350  -17.4047    7.6329 C   0  0  0  0  0  0  0  0  0  0  0  0
  -16.0389  -17.5609    5.5916 C   0  0  0  0  0  0  0  0  0  0  0  0
  -13.6042  -16.7340   10.7608 C   0  0  0  0  0  0  0  0  0  0  0  0
  -14.5582  -19.0004   11.4549 C   0  0  0  0  0  0  0  0  0  0  0  0
  -16.5328  -18.9138    4.8835 C   0  0  0  0  0  0  0  0  0  0  0  0
  -16.6563  -16.3320    5.0137 C   0  0  0  0  0  0  0  0  0  0  0  0
  1  2  1  0  0  0  0
  2  3  1  0  0  0  0
  2  4  1  0  0  0  0
  3  5  1  0  0  0  0
  3  6  1  0  0  0  0
  4  8  1  0  0  0  0
  4  9  1  0  0  0  0
  5  7  1  0  0  0  0
  6 10  1  0  0  0  0
  6 11  1  0  0  0  0
  7  8  1  0  0  0  0
  9 12  1  0  0  0  0
  9 13  1  0  0  0  0
M  END
>  <Score>
-1.740057

>  <Energy>
-5.973956

>  <Confidence>
0.822028

>  <Binding_Affinity>
-7.128091

>  <IC50_nM>
5950.3

$$$$
