ml_pose_2
  PandaDock generated structure

 13 13  0  0  0  0  0  0  0  0999 V2000
  -16.9802  -17.1312    6.7675 O   0  0  0  0  0  0  0  0  0  0  0  0
  -16.0973  -17.5766    7.8834 C   0  0  0  0  0  0  0  0  0  0  0  0
  -16.0112  -18.7940    8.2322 C   0  0  0  0  0  0  0  0  0  0  0  0
  -15.2247  -16.7142    8.2575 C   0  0  0  0  0  0  0  0  0  0  0  0
  -15.1808  -19.1899    9.2450 C   0  0  0  0  0  0  0  0  0  0  0  0
  -17.1003  -19.8176    7.6963 C   0  0  0  0  0  0  0  0  0  0  0  0
  -14.2790  -18.2720    9.6323 C   0  0  0  0  0  0  0  0  0  0  0  0
  -14.2300  -16.9594    9.1731 C   0  0  0  0  0  0  0  0  0  0  0  0
  -15.1805  -15.2047    7.7327 C   0  0  0  0  0  0  0  0  0  0  0  0
  -16.5115  -20.8461    6.6163 C   0  0  0  0  0  0  0  0  0  0  0  0
  -17.7956  -20.6638    8.9233 C   0  0  0  0  0  0  0  0  0  0  0  0
  -15.7100  -14.1745    8.9034 C   0  0  0  0  0  0  0  0  0  0  0  0
  -13.7990  -14.7559    7.2772 C   0  0  0  0  0  0  0  0  0  0  0  0
  1  2  1  0  0  0  0
  2  3  1  0  0  0  0
  2  4  1  0  0  0  0
  3  5  1  0  0  0  0
  3  6  1  0  0  0  0
  4  8  1  0  0  0  0
  4  9  1  0  0  0  0
  5  7  1  0  0  0  0
  6 10  1  0  0  0  0
  6 11  1  0  0  0  0
  7  8  1  0  0  0  0
  9 12  1  0  0  0  0
  9 13  1  0  0  0  0
M  END
>  <Score>
-1.804450

>  <Energy>
-5.378484

>  <Confidence>
0.727804

>  <Binding_Affinity>
-7.473480

>  <IC50_nM>
3321.5

$$$$
