ml_pose_16
  PandaDock generated structure

 13 13  0  0  0  0  0  0  0  0999 V2000
  -15.0811  -16.9702    9.8584 O   0  0  0  0  0  0  0  0  0  0  0  0
  -15.5722  -17.5375    8.6719 C   0  0  0  0  0  0  0  0  0  0  0  0
  -15.4326  -18.8676    8.4529 C   0  0  0  0  0  0  0  0  0  0  0  0
  -15.9923  -16.6055    7.6727 C   0  0  0  0  0  0  0  0  0  0  0  0
  -15.8553  -19.3854    7.3211 C   0  0  0  0  0  0  0  0  0  0  0  0
  -14.9763  -19.7934    9.6005 C   0  0  0  0  0  0  0  0  0  0  0  0
  -16.3394  -18.4537    6.2586 C   0  0  0  0  0  0  0  0  0  0  0  0
  -16.3792  -17.1493    6.4599 C   0  0  0  0  0  0  0  0  0  0  0  0
  -15.8940  -15.1251    7.8288 C   0  0  0  0  0  0  0  0  0  0  0  0
  -16.2172  -20.3873   10.3541 C   0  0  0  0  0  0  0  0  0  0  0  0
  -14.1151  -20.8546    9.0267 C   0  0  0  0  0  0  0  0  0  0  0  0
  -14.8773  -14.3894    7.2605 C   0  0  0  0  0  0  0  0  0  0  0  0
  -17.3682  -14.5811    7.5739 C   0  0  0  0  0  0  0  0  0  0  0  0
  1  2  1  0  0  0  0
  2  3  1  0  0  0  0
  2  4  1  0  0  0  0
  3  5  1  0  0  0  0
  3  6  1  0  0  0  0
  4  8  1  0  0  0  0
  4  9  1  0  0  0  0
  5  7  1  0  0  0  0
  6 10  1  0  0  0  0
  6 11  1  0  0  0  0
  7  8  1  0  0  0  0
  9 12  1  0  0  0  0
  9 13  1  0  0  0  0
M  END
>  <Score>
-1.854703

>  <Energy>
-5.471150

>  <Confidence>
0.599400

>  <Binding_Affinity>
-7.909371

>  <IC50_nM>
1591.5

$$$$
