ml_pose_10
  PandaDock generated structure

 13 13  0  0  0  0  0  0  0  0999 V2000
  -13.7304  -18.0994    8.5391 O   0  0  0  0  0  0  0  0  0  0  0  0
  -15.1686  -17.8019    8.2769 C   0  0  0  0  0  0  0  0  0  0  0  0
  -15.5358  -16.4986    8.0948 C   0  0  0  0  0  0  0  0  0  0  0  0
  -16.0481  -18.8655    8.2196 C   0  0  0  0  0  0  0  0  0  0  0  0
  -16.9125  -16.2412    7.8566 C   0  0  0  0  0  0  0  0  0  0  0  0
  -14.4816  -15.2765    8.0963 C   0  0  0  0  0  0  0  0  0  0  0  0
  -17.8565  -17.3449    7.7926 C   0  0  0  0  0  0  0  0  0  0  0  0
  -17.3218  -18.4965    8.0220 C   0  0  0  0  0  0  0  0  0  0  0  0
  -15.6513  -20.3419    8.5305 C   0  0  0  0  0  0  0  0  0  0  0  0
  -14.1536  -15.0220    6.6754 C   0  0  0  0  0  0  0  0  0  0  0  0
  -15.0939  -14.2407    8.9628 C   0  0  0  0  0  0  0  0  0  0  0  0
  -16.0825  -20.8036    9.9399 C   0  0  0  0  0  0  0  0  0  0  0  0
  -16.0632  -21.0673    7.3336 C   0  0  0  0  0  0  0  0  0  0  0  0
  1  2  1  0  0  0  0
  2  3  1  0  0  0  0
  2  4  1  0  0  0  0
  3  5  1  0  0  0  0
  3  6  1  0  0  0  0
  4  8  1  0  0  0  0
  4  9  1  0  0  0  0
  5  7  1  0  0  0  0
  6 10  1  0  0  0  0
  6 11  1  0  0  0  0
  7  8  1  0  0  0  0
  9 12  1  0  0  0  0
  9 13  1  0  0  0  0
M  END
>  <Score>
-1.777433

>  <Energy>
-5.950070

>  <Confidence>
0.612683

>  <Binding_Affinity>
-7.547571

>  <IC50_nM>
2931.1

$$$$
