ml_pose_21
  PandaDock generated structure

 13 13  0  0  0  0  0  0  0  0999 V2000
  -14.2323  -16.3808    8.3547 O   0  0  0  0  0  0  0  0  0  0  0  0
  -15.2336  -17.3726    8.2595 C   0  0  0  0  0  0  0  0  0  0  0  0
  -15.2723  -18.4693    9.0092 C   0  0  0  0  0  0  0  0  0  0  0  0
  -16.3354  -17.1567    7.3899 C   0  0  0  0  0  0  0  0  0  0  0  0
  -16.2508  -19.3533    8.9235 C   0  0  0  0  0  0  0  0  0  0  0  0
  -13.9736  -18.7278    9.8308 C   0  0  0  0  0  0  0  0  0  0  0  0
  -17.3049  -19.1567    7.9760 C   0  0  0  0  0  0  0  0  0  0  0  0
  -17.3832  -18.0142    7.2701 C   0  0  0  0  0  0  0  0  0  0  0  0
  -16.4435  -15.7867    6.4796 C   0  0  0  0  0  0  0  0  0  0  0  0
  -14.3188  -18.5195   11.3306 C   0  0  0  0  0  0  0  0  0  0  0  0
  -13.4447  -20.1298    9.7111 C   0  0  0  0  0  0  0  0  0  0  0  0
  -16.1153  -15.9677    5.0614 C   0  0  0  0  0  0  0  0  0  0  0  0
  -17.7917  -15.0650    6.7436 C   0  0  0  0  0  0  0  0  0  0  0  0
  1  2  1  0  0  0  0
  2  3  1  0  0  0  0
  2  4  1  0  0  0  0
  3  5  1  0  0  0  0
  3  6  1  0  0  0  0
  4  8  1  0  0  0  0
  4  9  1  0  0  0  0
  5  7  1  0  0  0  0
  6 10  1  0  0  0  0
  6 11  1  0  0  0  0
  7  8  1  0  0  0  0
  9 12  1  0  0  0  0
  9 13  1  0  0  0  0
M  END
>  <Score>
-1.791677

>  <Energy>
-5.708767

>  <Confidence>
0.848439

>  <Binding_Affinity>
-7.345459

>  <IC50_nM>
4122.8

$$$$
