ml_pose_25
  PandaDock generated structure

 13 13  0  0  0  0  0  0  0  0999 V2000
  -17.5824  -17.7457    8.8354 O   0  0  0  0  0  0  0  0  0  0  0  0
  -16.2124  -17.7565    8.3266 C   0  0  0  0  0  0  0  0  0  0  0  0
  -15.9266  -16.8627    7.3759 C   0  0  0  0  0  0  0  0  0  0  0  0
  -15.2647  -18.5494    8.8669 C   0  0  0  0  0  0  0  0  0  0  0  0
  -14.6119  -16.9100    6.8449 C   0  0  0  0  0  0  0  0  0  0  0  0
  -16.9323  -15.9665    6.5655 C   0  0  0  0  0  0  0  0  0  0  0  0
  -13.6231  -17.6856    7.5100 C   0  0  0  0  0  0  0  0  0  0  0  0
  -13.9651  -18.5325    8.5186 C   0  0  0  0  0  0  0  0  0  0  0  0
  -15.7590  -19.3055   10.1425 C   0  0  0  0  0  0  0  0  0  0  0  0
  -16.8904  -14.4835    7.0995 C   0  0  0  0  0  0  0  0  0  0  0  0
  -16.7702  -16.1145    5.1667 C   0  0  0  0  0  0  0  0  0  0  0  0
  -15.7629  -20.9468    9.6962 C   0  0  0  0  0  0  0  0  0  0  0  0
  -14.7991  -19.2409   11.3913 C   0  0  0  0  0  0  0  0  0  0  0  0
  1  2  1  0  0  0  0
  2  3  1  0  0  0  0
  2  4  1  0  0  0  0
  3  5  1  0  0  0  0
  3  6  1  0  0  0  0
  4  8  1  0  0  0  0
  4  9  1  0  0  0  0
  5  7  1  0  0  0  0
  6 10  1  0  0  0  0
  6 11  1  0  0  0  0
  7  8  1  0  0  0  0
  9 12  1  0  0  0  0
  9 13  1  0  0  0  0
M  END
>  <Score>
-2.877365

>  <Energy>
-8.039077

>  <Confidence>
0.746985

>  <Binding_Affinity>
-14.155682

>  <IC50_nM>
0.0

$$$$
