ml_pose_42
  PandaDock generated structure

 13 13  0  0  0  0  0  0  0  0999 V2000
  -15.8797  -18.4507    6.3687 O   0  0  0  0  0  0  0  0  0  0  0  0
  -15.8034  -17.9190    7.7066 C   0  0  0  0  0  0  0  0  0  0  0  0
  -14.7497  -18.3512    8.4885 C   0  0  0  0  0  0  0  0  0  0  0  0
  -16.5543  -16.9539    8.1148 C   0  0  0  0  0  0  0  0  0  0  0  0
  -14.5441  -17.8608    9.6975 C   0  0  0  0  0  0  0  0  0  0  0  0
  -13.7313  -19.4490    7.9557 C   0  0  0  0  0  0  0  0  0  0  0  0
  -15.5272  -16.9661   10.1017 C   0  0  0  0  0  0  0  0  0  0  0  0
  -16.5242  -16.4927    9.3689 C   0  0  0  0  0  0  0  0  0  0  0  0
  -17.8088  -16.3895    7.2066 C   0  0  0  0  0  0  0  0  0  0  0  0
  -12.3897  -18.7166    7.5038 C   0  0  0  0  0  0  0  0  0  0  0  0
  -13.5471  -20.5196    8.9903 C   0  0  0  0  0  0  0  0  0  0  0  0
  -19.1151  -17.0887    7.6199 C   0  0  0  0  0  0  0  0  0  0  0  0
  -17.9253  -14.9423    7.2170 C   0  0  0  0  0  0  0  0  0  0  0  0
  1  2  1  0  0  0  0
  2  3  1  0  0  0  0
  2  4  1  0  0  0  0
  3  5  1  0  0  0  0
  3  6  1  0  0  0  0
  4  8  1  0  0  0  0
  4  9  1  0  0  0  0
  5  7  1  0  0  0  0
  6 10  1  0  0  0  0
  6 11  1  0  0  0  0
  7  8  1  0  0  0  0
  9 12  1  0  0  0  0
  9 13  1  0  0  0  0
M  END
>  <Score>
-1.987708

>  <Energy>
-6.934824

>  <Confidence>
0.848656

>  <Binding_Affinity>
-8.717631

>  <IC50_nM>
406.7

$$$$
