ml_pose_39
  PandaDock generated structure

 13 13  0  0  0  0  0  0  0  0999 V2000
  -16.8101  -16.1600    8.5627 O   0  0  0  0  0  0  0  0  0  0  0  0
  -16.0056  -17.2302    8.3271 C   0  0  0  0  0  0  0  0  0  0  0  0
  -14.9018  -17.5279    9.0575 C   0  0  0  0  0  0  0  0  0  0  0  0
  -16.4151  -18.0295    7.3064 C   0  0  0  0  0  0  0  0  0  0  0  0
  -14.0750  -18.5897    8.7251 C   0  0  0  0  0  0  0  0  0  0  0  0
  -14.6401  -16.6396   10.2830 C   0  0  0  0  0  0  0  0  0  0  0  0
  -14.4338  -19.3232    7.6533 C   0  0  0  0  0  0  0  0  0  0  0  0
  -15.5517  -19.1263    6.9356 C   0  0  0  0  0  0  0  0  0  0  0  0
  -17.5924  -17.7341    6.3487 C   0  0  0  0  0  0  0  0  0  0  0  0
  -15.0402  -17.2127   11.5202 C   0  0  0  0  0  0  0  0  0  0  0  0
  -13.0616  -16.3807   10.3063 C   0  0  0  0  0  0  0  0  0  0  0  0
  -17.1178  -17.1356    4.9847 C   0  0  0  0  0  0  0  0  0  0  0  0
  -18.4547  -19.0106    6.3294 C   0  0  0  0  0  0  0  0  0  0  0  0
  1  2  1  0  0  0  0
  2  3  1  0  0  0  0
  2  4  1  0  0  0  0
  3  5  1  0  0  0  0
  3  6  1  0  0  0  0
  4  8  1  0  0  0  0
  4  9  1  0  0  0  0
  5  7  1  0  0  0  0
  6 10  1  0  0  0  0
  6 11  1  0  0  0  0
  7  8  1  0  0  0  0
  9 12  1  0  0  0  0
  9 13  1  0  0  0  0
M  END
>  <Score>
-2.255603

>  <Energy>
-6.288745

>  <Confidence>
0.631677

>  <Binding_Affinity>
-6.807173

>  <IC50_nM>
10228.1

$$$$
