ml_pose_21
  PandaDock generated structure

 13 13  0  0  0  0  0  0  0  0999 V2000
  -14.8414  -16.5059    6.7965 O   0  0  0  0  0  0  0  0  0  0  0  0
  -15.4573  -17.3648    7.7597 C   0  0  0  0  0  0  0  0  0  0  0  0
  -15.0522  -17.2137    9.0640 C   0  0  0  0  0  0  0  0  0  0  0  0
  -16.3569  -18.2146    7.4266 C   0  0  0  0  0  0  0  0  0  0  0  0
  -15.6537  -18.1060   10.0672 C   0  0  0  0  0  0  0  0  0  0  0  0
  -13.9472  -16.3651    9.4351 C   0  0  0  0  0  0  0  0  0  0  0  0
  -16.5846  -18.9630    9.7799 C   0  0  0  0  0  0  0  0  0  0  0  0
  -16.9869  -19.0491    8.3960 C   0  0  0  0  0  0  0  0  0  0  0  0
  -16.9734  -18.4217    5.9712 C   0  0  0  0  0  0  0  0  0  0  0  0
  -14.5564  -15.0296   10.0621 C   0  0  0  0  0  0  0  0  0  0  0  0
  -12.9874  -16.9023   10.4327 C   0  0  0  0  0  0  0  0  0  0  0  0
  -16.3276  -19.7080    5.2776 C   0  0  0  0  0  0  0  0  0  0  0  0
  -18.3751  -18.2563    5.8715 C   0  0  0  0  0  0  0  0  0  0  0  0
  1  2  1  0  0  0  0
  2  3  1  0  0  0  0
  2  4  1  0  0  0  0
  3  5  1  0  0  0  0
  3  6  1  0  0  0  0
  4  8  1  0  0  0  0
  4  9  1  0  0  0  0
  5  7  1  0  0  0  0
  6 10  1  0  0  0  0
  6 11  1  0  0  0  0
  7  8  1  0  0  0  0
  9 12  1  0  0  0  0
  9 13  1  0  0  0  0
M  END
>  <Score>
-1.993364

>  <Energy>
-5.181499

>  <Confidence>
0.546769

>  <Binding_Affinity>
-6.638591

>  <IC50_nM>
13595.0

$$$$
