ml_pose_18
  PandaDock generated structure

 13 13  0  0  0  0  0  0  0  0999 V2000
  -15.9336  -15.7019    8.4385 O   0  0  0  0  0  0  0  0  0  0  0  0
  -15.7624  -17.0584    8.2846 C   0  0  0  0  0  0  0  0  0  0  0  0
  -16.7554  -18.1307    8.5858 C   0  0  0  0  0  0  0  0  0  0  0  0
  -14.6406  -17.5039    7.6411 C   0  0  0  0  0  0  0  0  0  0  0  0
  -16.5664  -19.4219    8.4903 C   0  0  0  0  0  0  0  0  0  0  0  0
  -18.1988  -17.5392    9.2918 C   0  0  0  0  0  0  0  0  0  0  0  0
  -15.4178  -19.9076    7.8758 C   0  0  0  0  0  0  0  0  0  0  0  0
  -14.4219  -18.9314    7.4692 C   0  0  0  0  0  0  0  0  0  0  0  0
  -13.4295  -16.5913    7.3481 C   0  0  0  0  0  0  0  0  0  0  0  0
  -19.2126  -17.5070    8.2798 C   0  0  0  0  0  0  0  0  0  0  0  0
  -18.4125  -18.3293   10.5387 C   0  0  0  0  0  0  0  0  0  0  0  0
  -12.2629  -16.5973    8.2219 C   0  0  0  0  0  0  0  0  0  0  0  0
  -13.0856  -16.8801    5.8744 C   0  0  0  0  0  0  0  0  0  0  0  0
  1  2  1  0  0  0  0
  2  3  1  0  0  0  0
  2  4  1  0  0  0  0
  3  5  1  0  0  0  0
  3  6  1  0  0  0  0
  4  8  1  0  0  0  0
  4  9  1  0  0  0  0
  5  7  1  0  0  0  0
  6 10  1  0  0  0  0
  6 11  1  0  0  0  0
  7  8  1  0  0  0  0
  9 12  1  0  0  0  0
  9 13  1  0  0  0  0
M  END
>  <Score>
-1.764930

>  <Energy>
-6.305530

>  <Confidence>
0.680750

>  <Binding_Affinity>
-6.491741

>  <IC50_nM>
17419.3

$$$$
