ml_pose_41
  PandaDock generated structure

 13 13  0  0  0  0  0  0  0  0999 V2000
  -17.1054  -17.8679    9.6988 O   0  0  0  0  0  0  0  0  0  0  0  0
  -16.0551  -17.7184    8.6189 C   0  0  0  0  0  0  0  0  0  0  0  0
  -15.2262  -16.6934    8.6036 C   0  0  0  0  0  0  0  0  0  0  0  0
  -16.0687  -18.7544    7.6037 C   0  0  0  0  0  0  0  0  0  0  0  0
  -14.2773  -16.5799    7.5636 C   0  0  0  0  0  0  0  0  0  0  0  0
  -15.3957  -15.5727    9.7191 C   0  0  0  0  0  0  0  0  0  0  0  0
  -14.2231  -17.4206    6.5599 C   0  0  0  0  0  0  0  0  0  0  0  0
  -15.0861  -18.5872    6.5819 C   0  0  0  0  0  0  0  0  0  0  0  0
  -17.0693  -19.8657    7.6059 C   0  0  0  0  0  0  0  0  0  0  0  0
  -14.1975  -15.8632   10.6846 C   0  0  0  0  0  0  0  0  0  0  0  0
  -15.1636  -14.2361    9.0738 C   0  0  0  0  0  0  0  0  0  0  0  0
  -18.0196  -19.7166    6.5343 C   0  0  0  0  0  0  0  0  0  0  0  0
  -16.2124  -21.2236    7.4917 C   0  0  0  0  0  0  0  0  0  0  0  0
  1  2  1  0  0  0  0
  2  3  1  0  0  0  0
  2  4  1  0  0  0  0
  3  5  1  0  0  0  0
  3  6  1  0  0  0  0
  4  8  1  0  0  0  0
  4  9  1  0  0  0  0
  5  7  1  0  0  0  0
  6 10  1  0  0  0  0
  6 11  1  0  0  0  0
  7  8  1  0  0  0  0
  9 12  1  0  0  0  0
  9 13  1  0  0  0  0
M  END
>  <Score>
-2.809278

>  <Energy>
-5.179194

>  <Confidence>
0.690103

>  <Binding_Affinity>
-7.163107

>  <IC50_nM>
5608.8

$$$$
