ml_pose_4
  PandaDock generated structure

 13 13  0  0  0  0  0  0  0  0999 V2000
  -15.3133  -17.2369   10.0444 O   0  0  0  0  0  0  0  0  0  0  0  0
  -15.5519  -17.5318    8.7323 C   0  0  0  0  0  0  0  0  0  0  0  0
  -14.8616  -18.5758    8.0669 C   0  0  0  0  0  0  0  0  0  0  0  0
  -16.5716  -16.9141    8.1237 C   0  0  0  0  0  0  0  0  0  0  0  0
  -15.0957  -18.8397    6.7412 C   0  0  0  0  0  0  0  0  0  0  0  0
  -13.7279  -19.2977    8.6850 C   0  0  0  0  0  0  0  0  0  0  0  0
  -16.2112  -18.2451    6.1370 C   0  0  0  0  0  0  0  0  0  0  0  0
  -16.9316  -17.2006    6.7371 C   0  0  0  0  0  0  0  0  0  0  0  0
  -17.4260  -15.7887    8.7597 C   0  0  0  0  0  0  0  0  0  0  0  0
  -14.0951  -20.6372    9.3426 C   0  0  0  0  0  0  0  0  0  0  0  0
  -12.5269  -19.4328    7.9050 C   0  0  0  0  0  0  0  0  0  0  0  0
  -16.9592  -14.3568    8.3877 C   0  0  0  0  0  0  0  0  0  0  0  0
  -18.8280  -16.0428    8.6775 C   0  0  0  0  0  0  0  0  0  0  0  0
  1  2  1  0  0  0  0
  2  3  1  0  0  0  0
  2  4  1  0  0  0  0
  3  5  1  0  0  0  0
  3  6  1  0  0  0  0
  4  8  1  0  0  0  0
  4  9  1  0  0  0  0
  5  7  1  0  0  0  0
  6 10  1  0  0  0  0
  6 11  1  0  0  0  0
  7  8  1  0  0  0  0
  9 12  1  0  0  0  0
  9 13  1  0  0  0  0
M  END
>  <Score>
-2.183356

>  <Energy>
-7.039057

>  <Confidence>
0.764498

>  <Binding_Affinity>
-6.760729

>  <IC50_nM>
11062.2

$$$$
