ml_pose_8
  PandaDock generated structure

 13 13  0  0  0  0  0  0  0  0999 V2000
  -14.4409  -19.1723    7.7097 O   0  0  0  0  0  0  0  0  0  0  0  0
  -15.2981  -18.1000    8.0462 C   0  0  0  0  0  0  0  0  0  0  0  0
  -15.0018  -16.8173    7.8237 C   0  0  0  0  0  0  0  0  0  0  0  0
  -16.6078  -18.3936    8.5560 C   0  0  0  0  0  0  0  0  0  0  0  0
  -15.7643  -15.8382    8.2676 C   0  0  0  0  0  0  0  0  0  0  0  0
  -13.5057  -16.5119    7.1747 C   0  0  0  0  0  0  0  0  0  0  0  0
  -16.9768  -16.1078    8.6585 C   0  0  0  0  0  0  0  0  0  0  0  0
  -17.4013  -17.3071    8.9967 C   0  0  0  0  0  0  0  0  0  0  0  0
  -16.9719  -19.8311    8.7997 C   0  0  0  0  0  0  0  0  0  0  0  0
  -13.6960  -16.3049    5.7686 C   0  0  0  0  0  0  0  0  0  0  0  0
  -12.9718  -15.4288    7.9645 C   0  0  0  0  0  0  0  0  0  0  0  0
  -16.9985  -20.1388   10.3188 C   0  0  0  0  0  0  0  0  0  0  0  0
  -18.4651  -20.1482    8.2552 C   0  0  0  0  0  0  0  0  0  0  0  0
  1  2  1  0  0  0  0
  2  3  1  0  0  0  0
  2  4  1  0  0  0  0
  3  5  1  0  0  0  0
  3  6  1  0  0  0  0
  4  8  1  0  0  0  0
  4  9  1  0  0  0  0
  5  7  1  0  0  0  0
  6 10  1  0  0  0  0
  6 11  1  0  0  0  0
  7  8  1  0  0  0  0
  9 12  1  0  0  0  0
  9 13  1  0  0  0  0
M  END
>  <Score>
-1.711752

>  <Energy>
-5.760038

>  <Confidence>
0.637242

>  <Binding_Affinity>
-6.457555

>  <IC50_nM>
18454.1

$$$$
