ml_pose_38
  PandaDock generated structure

 13 13  0  0  0  0  0  0  0  0999 V2000
  -17.6595  -17.7206    7.9929 O   0  0  0  0  0  0  0  0  0  0  0  0
  -16.2297  -17.7721    8.0918 C   0  0  0  0  0  0  0  0  0  0  0  0
  -15.4964  -18.4539    7.2718 C   0  0  0  0  0  0  0  0  0  0  0  0
  -15.7380  -16.9702    9.0459 C   0  0  0  0  0  0  0  0  0  0  0  0
  -14.0311  -18.3956    7.3252 C   0  0  0  0  0  0  0  0  0  0  0  0
  -16.1819  -19.2691    6.1767 C   0  0  0  0  0  0  0  0  0  0  0  0
  -13.5794  -17.6664    8.3133 C   0  0  0  0  0  0  0  0  0  0  0  0
  -14.3797  -16.9363    9.2982 C   0  0  0  0  0  0  0  0  0  0  0  0
  -16.5587  -16.1872   10.1990 C   0  0  0  0  0  0  0  0  0  0  0  0
  -16.2162  -18.4615    4.8347 C   0  0  0  0  0  0  0  0  0  0  0  0
  -15.5049  -20.6411    5.9967 C   0  0  0  0  0  0  0  0  0  0  0  0
  -16.5585  -16.8743   11.5773 C   0  0  0  0  0  0  0  0  0  0  0  0
  -15.9659  -14.7518   10.2165 C   0  0  0  0  0  0  0  0  0  0  0  0
  1  2  1  0  0  0  0
  2  3  1  0  0  0  0
  2  4  1  0  0  0  0
  3  5  1  0  0  0  0
  3  6  1  0  0  0  0
  4  8  1  0  0  0  0
  4  9  1  0  0  0  0
  5  7  1  0  0  0  0
  6 10  1  0  0  0  0
  6 11  1  0  0  0  0
  7  8  1  0  0  0  0
  9 12  1  0  0  0  0
  9 13  1  0  0  0  0
M  END
>  <Score>
-2.367461

>  <Energy>
-5.838967

>  <Confidence>
0.814268

>  <Binding_Affinity>
-6.879082

>  <IC50_nM>
9059.0

$$$$
