ml_pose_10
  PandaDock generated structure

 13 13  0  0  0  0  0  0  0  0999 V2000
  -14.4422  -17.3813    9.6258 O   0  0  0  0  0  0  0  0  0  0  0  0
  -15.2677  -17.5448    8.5575 C   0  0  0  0  0  0  0  0  0  0  0  0
  -14.9339  -18.3017    7.3938 C   0  0  0  0  0  0  0  0  0  0  0  0
  -16.5867  -17.0474    8.7446 C   0  0  0  0  0  0  0  0  0  0  0  0
  -15.8138  -18.5495    6.4932 C   0  0  0  0  0  0  0  0  0  0  0  0
  -13.5032  -18.7445    7.2918 C   0  0  0  0  0  0  0  0  0  0  0  0
  -17.1503  -18.1002    6.5902 C   0  0  0  0  0  0  0  0  0  0  0  0
  -17.5173  -17.3807    7.7848 C   0  0  0  0  0  0  0  0  0  0  0  0
  -16.9829  -16.3105   10.0057 C   0  0  0  0  0  0  0  0  0  0  0  0
  -13.5053  -20.3440    7.6293 C   0  0  0  0  0  0  0  0  0  0  0  0
  -13.0661  -18.5001    5.9489 C   0  0  0  0  0  0  0  0  0  0  0  0
  -17.1269  -14.9069    9.6622 C   0  0  0  0  0  0  0  0  0  0  0  0
  -18.2038  -16.9886   10.6124 C   0  0  0  0  0  0  0  0  0  0  0  0
  1  2  1  0  0  0  0
  2  3  1  0  0  0  0
  2  4  1  0  0  0  0
  3  5  1  0  0  0  0
  3  6  1  0  0  0  0
  4  8  1  0  0  0  0
  4  9  1  0  0  0  0
  5  7  1  0  0  0  0
  6 10  1  0  0  0  0
  6 11  1  0  0  0  0
  7  8  1  0  0  0  0
  9 12  1  0  0  0  0
  9 13  1  0  0  0  0
M  END
>  <Score>
-2.369816

>  <Energy>
-6.430163

>  <Confidence>
0.599854

>  <Binding_Affinity>
-6.880596

>  <IC50_nM>
9035.9

$$$$
