ml_pose_5
  PandaDock generated structure

 13 13  0  0  0  0  0  0  0  0999 V2000
  -15.1395  -19.5430    8.0530 O   0  0  0  0  0  0  0  0  0  0  0  0
  -15.4798  -18.2308    8.2192 C   0  0  0  0  0  0  0  0  0  0  0  0
  -16.9434  -18.0259    8.3063 C   0  0  0  0  0  0  0  0  0  0  0  0
  -14.5476  -17.1965    8.0323 C   0  0  0  0  0  0  0  0  0  0  0  0
  -17.2929  -16.6978    8.4434 C   0  0  0  0  0  0  0  0  0  0  0  0
  -17.8941  -19.1719    8.4434 C   0  0  0  0  0  0  0  0  0  0  0  0
  -16.3946  -15.6111    8.3082 C   0  0  0  0  0  0  0  0  0  0  0  0
  -14.9400  -15.8908    8.1718 C   0  0  0  0  0  0  0  0  0  0  0  0
  -13.0766  -17.5170    7.7543 C   0  0  0  0  0  0  0  0  0  0  0  0
  -18.2894  -19.4616    9.7717 C   0  0  0  0  0  0  0  0  0  0  0  0
  -19.1553  -18.7185    7.7084 C   0  0  0  0  0  0  0  0  0  0  0  0
  -12.7278  -17.2194    6.3557 C   0  0  0  0  0  0  0  0  0  0  0  0
  -12.2191  -16.8156    8.7722 C   0  0  0  0  0  0  0  0  0  0  0  0
  1  2  1  0  0  0  0
  2  3  1  0  0  0  0
  2  4  1  0  0  0  0
  3  5  1  0  0  0  0
  3  6  1  0  0  0  0
  4  8  1  0  0  0  0
  4  9  1  0  0  0  0
  5  7  1  0  0  0  0
  6 10  1  0  0  0  0
  6 11  1  0  0  0  0
  7  8  1  0  0  0  0
  9 12  1  0  0  0  0
  9 13  1  0  0  0  0
M  END
>  <Score>
-1.797209

>  <Energy>
-8.996869

>  <Confidence>
0.811326

>  <Binding_Affinity>
-6.512492

>  <IC50_nM>
16819.8

$$$$
