ml_pose_36
  PandaDock generated structure

 13 13  0  0  0  0  0  0  0  0999 V2000
  -14.1810  -17.8842    6.8114 O   0  0  0  0  0  0  0  0  0  0  0  0
  -15.1964  -17.7820    7.8081 C   0  0  0  0  0  0  0  0  0  0  0  0
  -16.3541  -16.8807    7.5556 C   0  0  0  0  0  0  0  0  0  0  0  0
  -15.2443  -18.4257    9.0299 C   0  0  0  0  0  0  0  0  0  0  0  0
  -17.3856  -16.8726    8.3818 C   0  0  0  0  0  0  0  0  0  0  0  0
  -16.3524  -16.1320    6.1696 C   0  0  0  0  0  0  0  0  0  0  0  0
  -17.2731  -17.4593    9.5378 C   0  0  0  0  0  0  0  0  0  0  0  0
  -16.2626  -18.3069   10.0136 C   0  0  0  0  0  0  0  0  0  0  0  0
  -14.0206  -19.3710    9.3161 C   0  0  0  0  0  0  0  0  0  0  0  0
  -17.2204  -16.9080    5.1616 C   0  0  0  0  0  0  0  0  0  0  0  0
  -16.8451  -14.6603    6.3089 C   0  0  0  0  0  0  0  0  0  0  0  0
  -13.1917  -18.6972   10.4788 C   0  0  0  0  0  0  0  0  0  0  0  0
  -14.5726  -20.7201    9.7669 C   0  0  0  0  0  0  0  0  0  0  0  0
  1  2  1  0  0  0  0
  2  3  1  0  0  0  0
  2  4  1  0  0  0  0
  3  5  1  0  0  0  0
  3  6  1  0  0  0  0
  4  8  1  0  0  0  0
  4  9  1  0  0  0  0
  5  7  1  0  0  0  0
  6 10  1  0  0  0  0
  6 11  1  0  0  0  0
  7  8  1  0  0  0  0
  9 12  1  0  0  0  0
  9 13  1  0  0  0  0
M  END
>  <Score>
-1.631772

>  <Energy>
-5.956231

>  <Confidence>
0.679677

>  <Binding_Affinity>
-6.406139

>  <IC50_nM>
20127.3

$$$$
