ml_pose_32
  PandaDock generated structure

 13 13  0  0  0  0  0  0  0  0999 V2000
  -15.0071  -19.2711    7.2527 O   0  0  0  0  0  0  0  0  0  0  0  0
  -15.5269  -18.2625    7.9047 C   0  0  0  0  0  0  0  0  0  0  0  0
  -16.7770  -18.1792    8.4035 C   0  0  0  0  0  0  0  0  0  0  0  0
  -14.8315  -17.0833    7.9667 C   0  0  0  0  0  0  0  0  0  0  0  0
  -17.2397  -17.0282    9.1309 C   0  0  0  0  0  0  0  0  0  0  0  0
  -17.5747  -19.4794    8.3278 C   0  0  0  0  0  0  0  0  0  0  0  0
  -16.4310  -15.9652    9.2177 C   0  0  0  0  0  0  0  0  0  0  0  0
  -15.0909  -15.8728    8.6218 C   0  0  0  0  0  0  0  0  0  0  0  0
  -13.3492  -17.0418    7.3223 C   0  0  0  0  0  0  0  0  0  0  0  0
  -17.5341  -20.1419    9.6613 C   0  0  0  0  0  0  0  0  0  0  0  0
  -19.0836  -19.0956    8.0349 C   0  0  0  0  0  0  0  0  0  0  0  0
  -13.3303  -16.2296    6.1475 C   0  0  0  0  0  0  0  0  0  0  0  0
  -12.3240  -16.4494    8.3483 C   0  0  0  0  0  0  0  0  0  0  0  0
  1  2  1  0  0  0  0
  2  3  1  0  0  0  0
  2  4  1  0  0  0  0
  3  5  1  0  0  0  0
  3  6  1  0  0  0  0
  4  8  1  0  0  0  0
  4  9  1  0  0  0  0
  5  7  1  0  0  0  0
  6 10  1  0  0  0  0
  6 11  1  0  0  0  0
  7  8  1  0  0  0  0
  9 12  1  0  0  0  0
  9 13  1  0  0  0  0
M  END
>  <Score>
-2.749183

>  <Energy>
-5.457720

>  <Confidence>
0.828781

>  <Binding_Affinity>
-7.124475

>  <IC50_nM>
5986.7

$$$$
