pose_383
  PandaDock generated structure

 13 13  0  0  0  0  0  0  0  0999 V2000
  -34.1582  -15.9853   27.6902 O   0  0  0  0  0  0  0  0  0  0  0  0
  -33.4911  -16.2854   26.6888 C   0  0  0  0  0  0  0  0  0  0  0  0
  -34.2156  -16.3928   25.6490 C   0  0  0  0  0  0  0  0  0  0  0  0
  -32.3414  -16.6858   26.2279 C   0  0  0  0  0  0  0  0  0  0  0  0
  -34.0900  -16.8324   24.5117 C   0  0  0  0  0  0  0  0  0  0  0  0
  -35.9712  -16.1800   25.8706 C   0  0  0  0  0  0  0  0  0  0  0  0
  -32.8624  -17.6773   24.4155 C   0  0  0  0  0  0  0  0  0  0  0  0
  -31.9323  -17.8718   25.4691 C   0  0  0  0  0  0  0  0  0  0  0  0
  -31.6311  -16.9033   27.4743 C   0  0  0  0  0  0  0  0  0  0  0  0
  -36.0078  -14.6749   25.1425 C   0  0  0  0  0  0  0  0  0  0  0  0
  -36.6335  -17.1109   25.3541 C   0  0  0  0  0  0  0  0  0  0  0  0
  -31.2418  -18.1850   28.4938 C   0  0  0  0  0  0  0  0  0  0  0  0
  -30.3386  -16.4122   27.3526 C   0  0  0  0  0  0  0  0  0  0  0  0
  1  2  1  0  0  0  0
  2  3  1  0  0  0  0
  2  4  1  0  0  0  0
  3  5  1  0  0  0  0
  3  6  1  0  0  0  0
  4  8  1  0  0  0  0
  4  9  1  0  0  0  0
  5  7  1  0  0  0  0
  6 10  1  0  0  0  0
  6 11  1  0  0  0  0
  7  8  1  0  0  0  0
  9 12  1  0  0  0  0
  9 13  1  0  0  0  0
M  END
>  <Score>
-10.470066

>  <Energy>
-11.250378

>  <Confidence>
0.000000

>  <Binding_Affinity>
-12.087899

>  <IC50_nM>
1.4

$$$$
