pose_516
  PandaDock generated structure

 13 11  0  0  0  0  0  0  0  0999 V2000
  -21.3385  -17.4341    5.7351 O   0  0  0  0  0  0  0  0  0  0  0  0
  -20.4110  -18.7380    5.4348 C   0  0  0  0  0  0  0  0  0  0  0  0
  -19.5446  -18.8577    4.2752 C   0  0  0  0  0  0  0  0  0  0  0  0
  -19.8377  -18.8430    6.7196 C   0  0  0  0  0  0  0  0  0  0  0  0
  -18.7324  -19.6950    4.7131 C   0  0  0  0  0  0  0  0  0  0  0  0
  -20.4441  -18.2101    2.9427 C   0  0  0  0  0  0  0  0  0  0  0  0
  -18.2227  -19.9494    6.0308 C   0  0  0  0  0  0  0  0  0  0  0  0
  -18.6870  -19.8125    7.0141 C   0  0  0  0  0  0  0  0  0  0  0  0
  -20.7068  -18.0233    7.7987 C   0  0  0  0  0  0  0  0  0  0  0  0
  -18.8284  -17.0374    2.4817 C   0  0  0  0  0  0  0  0  0  0  0  0
  -20.2540  -19.1958    2.2311 C   0  0  0  0  0  0  0  0  0  0  0  0
  -21.3795  -19.1950    8.5283 C   0  0  0  0  0  0  0  0  0  0  0  0
  -19.4212  -18.0638    9.1799 C   0  0  0  0  0  0  0  0  0  0  0  0
  1  2  1  0  0  0  0
  2  3  1  0  0  0  0
  2  4  1  0  0  0  0
  3  5  1  0  0  0  0
  3  6  1  0  0  0  0
  4  8  1  0  0  0  0
  4  9  1  0  0  0  0
  5  7  1  0  0  0  0
  6 11  1  0  0  0  0
  7  8  1  0  0  0  0
  9 12  1  0  0  0  0
M  END
>  <Score>
-11.449857

>  <Energy>
-12.242051

>  <Confidence>
0.000000

>  <Binding_Affinity>
-12.717765

>  <IC50_nM>
0.5

$$$$
