pose_549
  PandaDock generated structure

 13 11  0  0  0  0  0  0  0  0999 V2000
  -31.2801  -17.5267   11.2527 O   0  0  0  0  0  0  0  0  0  0  0  0
  -32.2024  -16.7972   12.2713 C   0  0  0  0  0  0  0  0  0  0  0  0
  -32.1970  -16.2818   13.3073 C   0  0  0  0  0  0  0  0  0  0  0  0
  -32.9786  -15.5186   11.5566 C   0  0  0  0  0  0  0  0  0  0  0  0
  -32.6979  -15.8157   14.5244 C   0  0  0  0  0  0  0  0  0  0  0  0
  -31.4813  -17.7183   14.2340 C   0  0  0  0  0  0  0  0  0  0  0  0
  -33.3455  -14.1340   13.6918 C   0  0  0  0  0  0  0  0  0  0  0  0
  -33.4388  -14.2882   12.4930 C   0  0  0  0  0  0  0  0  0  0  0  0
  -32.8930  -15.5998   10.2106 C   0  0  0  0  0  0  0  0  0  0  0  0
  -30.0918  -17.4876   14.9165 C   0  0  0  0  0  0  0  0  0  0  0  0
  -32.3877  -18.5015   15.5235 C   0  0  0  0  0  0  0  0  0  0  0  0
  -34.1686  -15.6748    9.4668 C   0  0  0  0  0  0  0  0  0  0  0  0
  -32.4243  -14.2564    9.4163 C   0  0  0  0  0  0  0  0  0  0  0  0
  1  2  1  0  0  0  0
  2  3  1  0  0  0  0
  2  4  1  0  0  0  0
  3  5  1  0  0  0  0
  4  8  1  0  0  0  0
  4  9  1  0  0  0  0
  6 10  1  0  0  0  0
  6 11  1  0  0  0  0
  7  8  1  0  0  0  0
  9 12  1  0  0  0  0
  9 13  1  0  0  0  0
M  END
>  <Score>
-10.294278

>  <Energy>
-10.834448

>  <Confidence>
0.000000

>  <Binding_Affinity>
-11.974893

>  <IC50_nM>
1.7

$$$$
