pose_592
  PandaDock generated structure

 13  9  0  0  0  0  0  0  0  0999 V2000
  -34.9778  -20.0026   24.7288 O   0  0  0  0  0  0  0  0  0  0  0  0
  -33.6358  -20.8541   25.6185 C   0  0  0  0  0  0  0  0  0  0  0  0
  -33.6336  -21.9003   25.1840 C   0  0  0  0  0  0  0  0  0  0  0  0
  -33.8309  -20.4036   27.1175 C   0  0  0  0  0  0  0  0  0  0  0  0
  -32.8235  -22.8532   26.6564 C   0  0  0  0  0  0  0  0  0  0  0  0
  -34.1212  -23.1018   24.2576 C   0  0  0  0  0  0  0  0  0  0  0  0
  -32.7293  -22.0214   27.7576 C   0  0  0  0  0  0  0  0  0  0  0  0
  -32.7023  -20.7970   27.9757 C   0  0  0  0  0  0  0  0  0  0  0  0
  -34.4095  -18.6967   27.1372 C   0  0  0  0  0  0  0  0  0  0  0  0
  -32.6279  -23.1500   23.4211 C   0  0  0  0  0  0  0  0  0  0  0  0
  -34.2441  -24.6024   24.6654 C   0  0  0  0  0  0  0  0  0  0  0  0
  -35.5859  -18.8098   27.9347 C   0  0  0  0  0  0  0  0  0  0  0  0
  -32.7783  -17.6002   27.8855 C   0  0  0  0  0  0  0  0  0  0  0  0
  2  3  1  0  0  0  0
  2  4  1  0  0  0  0
  3  6  1  0  0  0  0
  4  8  1  0  0  0  0
  5  7  1  0  0  0  0
  6 10  1  0  0  0  0
  6 11  1  0  0  0  0
  7  8  1  0  0  0  0
  9 12  1  0  0  0  0
M  END
>  <Score>
-10.881203

>  <Energy>
-11.379828

>  <Confidence>
0.000000

>  <Binding_Affinity>
-12.352202

>  <IC50_nM>
0.9

$$$$
