pose_61
  PandaDock generated structure

 13 12  0  0  0  0  0  0  0  0999 V2000
  -35.4122  -35.2694   11.1734 O   0  0  0  0  0  0  0  0  0  0  0  0
  -33.8386  -35.8369   11.3389 C   0  0  0  0  0  0  0  0  0  0  0  0
  -33.4781  -36.0036   10.1799 C   0  0  0  0  0  0  0  0  0  0  0  0
  -33.7598  -35.1408   12.5758 C   0  0  0  0  0  0  0  0  0  0  0  0
  -32.2330  -36.0773   10.5744 C   0  0  0  0  0  0  0  0  0  0  0  0
  -34.2275  -36.2500    9.2131 C   0  0  0  0  0  0  0  0  0  0  0  0
  -31.6730  -36.1883   12.0442 C   0  0  0  0  0  0  0  0  0  0  0  0
  -32.7200  -35.6336   12.8360 C   0  0  0  0  0  0  0  0  0  0  0  0
  -34.7460  -35.1116   14.3109 C   0  0  0  0  0  0  0  0  0  0  0  0
  -33.6659  -34.8175    8.3371 C   0  0  0  0  0  0  0  0  0  0  0  0
  -33.5424  -37.6169    8.6700 C   0  0  0  0  0  0  0  0  0  0  0  0
  -34.7711  -36.4386   15.5560 C   0  0  0  0  0  0  0  0  0  0  0  0
  -34.0325  -33.7155   14.7559 C   0  0  0  0  0  0  0  0  0  0  0  0
  1  2  1  0  0  0  0
  2  3  1  0  0  0  0
  2  4  1  0  0  0  0
  2  5  1  0  0  0  0
  3  5  1  0  0  0  0
  3  6  1  0  0  0  0
  4  8  1  0  0  0  0
  5  7  1  0  0  0  0
  6 10  1  0  0  0  0
  6 11  1  0  0  0  0
  7  8  1  0  0  0  0
  9 13  1  0  0  0  0
M  END
>  <Score>
-11.066933

>  <Energy>
-11.663377

>  <Confidence>
0.000000

>  <Binding_Affinity>
-12.471600

>  <IC50_nM>
0.7

$$$$
