pose_351
  PandaDock generated structure

 13 11  0  0  0  0  0  0  0  0999 V2000
  -28.6949  -26.0264   20.0435 O   0  0  0  0  0  0  0  0  0  0  0  0
  -29.3310  -25.2828   21.2529 C   0  0  0  0  0  0  0  0  0  0  0  0
  -29.2440  -24.3169   21.8841 C   0  0  0  0  0  0  0  0  0  0  0  0
  -30.9614  -25.0800   21.0320 C   0  0  0  0  0  0  0  0  0  0  0  0
  -29.3615  -23.4824   22.9973 C   0  0  0  0  0  0  0  0  0  0  0  0
  -27.4575  -24.5354   22.3263 C   0  0  0  0  0  0  0  0  0  0  0  0
  -31.2310  -23.0069   22.5287 C   0  0  0  0  0  0  0  0  0  0  0  0
  -31.6814  -23.8413   21.7733 C   0  0  0  0  0  0  0  0  0  0  0  0
  -31.4111  -25.8758   20.0369 C   0  0  0  0  0  0  0  0  0  0  0  0
  -26.4717  -23.4303   21.8196 C   0  0  0  0  0  0  0  0  0  0  0  0
  -26.9596  -24.7168   24.0046 C   0  0  0  0  0  0  0  0  0  0  0  0
  -32.4561  -26.8592   20.3930 C   0  0  0  0  0  0  0  0  0  0  0  0
  -32.3491  -25.1809   18.9000 C   0  0  0  0  0  0  0  0  0  0  0  0
  1  2  1  0  0  0  0
  2  3  1  0  0  0  0
  2  4  1  0  0  0  0
  3  5  1  0  0  0  0
  4  8  1  0  0  0  0
  4  9  1  0  0  0  0
  6 10  1  0  0  0  0
  6 11  1  0  0  0  0
  7  8  1  0  0  0  0
  9 12  1  0  0  0  0
  9 13  1  0  0  0  0
M  END
>  <Score>
-11.525049

>  <Energy>
-12.065219

>  <Confidence>
0.000000

>  <Binding_Affinity>
-12.766103

>  <IC50_nM>
0.4

$$$$
