ml_pose_10
  PandaDock generated structure

 13 13  0  0  0  0  0  0  0  0999 V2000
  -14.7831  -18.7728    6.6937 O   0  0  0  0  0  0  0  0  0  0  0  0
  -15.4201  -18.0873    7.7554 C   0  0  0  0  0  0  0  0  0  0  0  0
  -15.1387  -18.2574    9.1051 C   0  0  0  0  0  0  0  0  0  0  0  0
  -16.4150  -17.1100    7.4034 C   0  0  0  0  0  0  0  0  0  0  0  0
  -15.7068  -17.4616   10.0853 C   0  0  0  0  0  0  0  0  0  0  0  0
  -13.9792  -19.1823    9.5120 C   0  0  0  0  0  0  0  0  0  0  0  0
  -16.6778  -16.5748    9.7045 C   0  0  0  0  0  0  0  0  0  0  0  0
  -17.1568  -16.4320    8.4546 C   0  0  0  0  0  0  0  0  0  0  0  0
  -16.7928  -16.8707    5.9739 C   0  0  0  0  0  0  0  0  0  0  0  0
  -12.6379  -18.4427    9.7121 C   0  0  0  0  0  0  0  0  0  0  0  0
  -14.4044  -20.0242   10.6774 C   0  0  0  0  0  0  0  0  0  0  0  0
  -18.1553  -17.4246    5.6158 C   0  0  0  0  0  0  0  0  0  0  0  0
  -16.8320  -15.4595    5.6468 C   0  0  0  0  0  0  0  0  0  0  0  0
  1  2  1  0  0  0  0
  2  3  1  0  0  0  0
  2  4  1  0  0  0  0
  3  5  1  0  0  0  0
  3  6  1  0  0  0  0
  4  8  1  0  0  0  0
  4  9  1  0  0  0  0
  5  7  1  0  0  0  0
  6 10  1  0  0  0  0
  6 11  1  0  0  0  0
  7  8  1  0  0  0  0
  9 12  1  0  0  0  0
  9 13  1  0  0  0  0
M  END
>  <Score>
0.138246

>  <Energy>
-6.576970

>  <Confidence>
0.861754

>  <Binding_Affinity>
-7.755339

>  <IC50_nM>
2064.0

$$$$
