ml_pose_13
  PandaDock generated structure

 13 13  0  0  0  0  0  0  0  0999 V2000
  -17.1647  -16.4985    7.8797 O   0  0  0  0  0  0  0  0  0  0  0  0
  -16.1644  -17.3573    8.0669 C   0  0  0  0  0  0  0  0  0  0  0  0
  -15.9111  -17.9018    9.4231 C   0  0  0  0  0  0  0  0  0  0  0  0
  -15.2828  -17.5999    6.9903 C   0  0  0  0  0  0  0  0  0  0  0  0
  -14.7965  -18.6951    9.5595 C   0  0  0  0  0  0  0  0  0  0  0  0
  -16.7926  -17.4683   10.5069 C   0  0  0  0  0  0  0  0  0  0  0  0
  -13.9579  -19.0342    8.5117 C   0  0  0  0  0  0  0  0  0  0  0  0
  -14.2719  -18.3715    7.2602 C   0  0  0  0  0  0  0  0  0  0  0  0
  -15.6085  -17.1141    5.6619 C   0  0  0  0  0  0  0  0  0  0  0  0
  -17.8485  -18.5980   10.7861 C   0  0  0  0  0  0  0  0  0  0  0  0
  -15.9949  -17.2581   11.9179 C   0  0  0  0  0  0  0  0  0  0  0  0
  -14.6693  -15.9451    5.2716 C   0  0  0  0  0  0  0  0  0  0  0  0
  -15.6367  -18.2581    4.5042 C   0  0  0  0  0  0  0  0  0  0  0  0
  1  2  1  0  0  0  0
  2  3  1  0  0  0  0
  2  4  1  0  0  0  0
  3  5  1  0  0  0  0
  3  6  1  0  0  0  0
  4  8  1  0  0  0  0
  4  9  1  0  0  0  0
  5  7  1  0  0  0  0
  6 10  1  0  0  0  0
  6 11  1  0  0  0  0
  7  8  1  0  0  0  0
  9 12  1  0  0  0  0
  9 13  1  0  0  0  0
M  END
>  <Score>
0.267294

>  <Energy>
-6.947395

>  <Confidence>
0.732706

>  <Binding_Affinity>
-3.156774

>  <IC50_nM>
4850998.0

$$$$
