ml_pose_27
  PandaDock generated structure

 13 13  0  0  0  0  0  0  0  0999 V2000
  -13.7172  -18.0243    8.3833 O   0  0  0  0  0  0  0  0  0  0  0  0
  -15.0801  -17.8129    8.2025 C   0  0  0  0  0  0  0  0  0  0  0  0
  -15.6714  -16.5956    7.6111 C   0  0  0  0  0  0  0  0  0  0  0  0
  -16.0168  -18.6478    8.7550 C   0  0  0  0  0  0  0  0  0  0  0  0
  -16.9660  -16.4757    7.5658 C   0  0  0  0  0  0  0  0  0  0  0  0
  -14.6581  -15.6150    7.0782 C   0  0  0  0  0  0  0  0  0  0  0  0
  -17.8821  -17.3813    8.0997 C   0  0  0  0  0  0  0  0  0  0  0  0
  -17.4218  -18.4878    8.6847 C   0  0  0  0  0  0  0  0  0  0  0  0
  -15.3848  -19.9976    9.3478 C   0  0  0  0  0  0  0  0  0  0  0  0
  -14.6156  -15.7961    5.6015 C   0  0  0  0  0  0  0  0  0  0  0  0
  -15.0731  -14.2387    7.2952 C   0  0  0  0  0  0  0  0  0  0  0  0
  -15.4953  -19.7993   10.8679 C   0  0  0  0  0  0  0  0  0  0  0  0
  -16.1176  -21.2278    8.8473 C   0  0  0  0  0  0  0  0  0  0  0  0
  1  2  1  0  0  0  0
  2  3  1  0  0  0  0
  2  4  1  0  0  0  0
  3  5  1  0  0  0  0
  3  6  1  0  0  0  0
  4  8  1  0  0  0  0
  4  9  1  0  0  0  0
  5  7  1  0  0  0  0
  6 10  1  0  0  0  0
  6 11  1  0  0  0  0
  7  8  1  0  0  0  0
  9 12  1  0  0  0  0
  9 13  1  0  0  0  0
M  END
>  <Score>
0.144471

>  <Energy>
-6.541719

>  <Confidence>
0.855529

>  <Binding_Affinity>
-7.038693

>  <IC50_nM>
6919.5

$$$$
