ml_pose_18
  PandaDock generated structure

 13 13  0  0  0  0  0  0  0  0999 V2000
  -17.3972  -17.9434    7.0961 O   0  0  0  0  0  0  0  0  0  0  0  0
  -16.1834  -17.7504    7.9479 C   0  0  0  0  0  0  0  0  0  0  0  0
  -15.0324  -17.6344    7.1744 C   0  0  0  0  0  0  0  0  0  0  0  0
  -16.1018  -17.8198    9.3135 C   0  0  0  0  0  0  0  0  0  0  0  0
  -13.9493  -17.5503    7.8983 C   0  0  0  0  0  0  0  0  0  0  0  0
  -15.0551  -17.5786    5.6401 C   0  0  0  0  0  0  0  0  0  0  0  0
  -13.7943  -17.4614    9.2672 C   0  0  0  0  0  0  0  0  0  0  0  0
  -14.9793  -17.7278   10.0545 C   0  0  0  0  0  0  0  0  0  0  0  0
  -17.5733  -17.9453    9.9722 C   0  0  0  0  0  0  0  0  0  0  0  0
  -14.9398  -16.1266    5.0723 C   0  0  0  0  0  0  0  0  0  0  0  0
  -13.8031  -18.3946    5.1377 C   0  0  0  0  0  0  0  0  0  0  0  0
  -17.6161  -19.3251   10.6915 C   0  0  0  0  0  0  0  0  0  0  0  0
  -17.6748  -16.8422   11.0745 C   0  0  0  0  0  0  0  0  0  0  0  0
  1  2  1  0  0  0  0
  2  3  1  0  0  0  0
  2  4  1  0  0  0  0
  3  5  1  0  0  0  0
  3  6  1  0  0  0  0
  4  8  1  0  0  0  0
  4  9  1  0  0  0  0
  5  7  1  0  0  0  0
  6 10  1  0  0  0  0
  6 11  1  0  0  0  0
  7  8  1  0  0  0  0
  9 12  1  0  0  0  0
  9 13  1  0  0  0  0
M  END
>  <Score>
0.333101

>  <Energy>
-5.205980

>  <Confidence>
0.666899

>  <Binding_Affinity>
-3.000000

>  <IC50_nM>
6320605.5

$$$$
