ml_pose_29
  PandaDock generated structure

 13 13  0  0  0  0  0  0  0  0999 V2000
  -14.8196  -19.4265    7.7714 O   0  0  0  0  0  0  0  0  0  0  0  0
  -15.4461  -18.2211    8.1768 C   0  0  0  0  0  0  0  0  0  0  0  0
  -14.7011  -17.1707    8.6480 C   0  0  0  0  0  0  0  0  0  0  0  0
  -16.7216  -18.0912    7.8364 C   0  0  0  0  0  0  0  0  0  0  0  0
  -15.3556  -15.9700    8.7750 C   0  0  0  0  0  0  0  0  0  0  0  0
  -13.2307  -17.2281    8.9479 C   0  0  0  0  0  0  0  0  0  0  0  0
  -16.6600  -15.8413    8.5931 C   0  0  0  0  0  0  0  0  0  0  0  0
  -17.4941  -16.9170    8.0557 C   0  0  0  0  0  0  0  0  0  0  0  0
  -17.5898  -19.3009    7.2850 C   0  0  0  0  0  0  0  0  0  0  0  0
  -12.4519  -16.6487    7.7335 C   0  0  0  0  0  0  0  0  0  0  0  0
  -12.8143  -16.4939   10.1974 C   0  0  0  0  0  0  0  0  0  0  0  0
  -18.4903  -19.9180    8.3433 C   0  0  0  0  0  0  0  0  0  0  0  0
  -18.3248  -18.8726    5.9766 C   0  0  0  0  0  0  0  0  0  0  0  0
  1  2  1  0  0  0  0
  2  3  1  0  0  0  0
  2  4  1  0  0  0  0
  3  5  1  0  0  0  0
  3  6  1  0  0  0  0
  4  8  1  0  0  0  0
  4  9  1  0  0  0  0
  5  7  1  0  0  0  0
  6 10  1  0  0  0  0
  6 11  1  0  0  0  0
  7  8  1  0  0  0  0
  9 12  1  0  0  0  0
  9 13  1  0  0  0  0
M  END
>  <Score>
0.342472

>  <Energy>
-6.044429

>  <Confidence>
0.657528

>  <Binding_Affinity>
-3.051358

>  <IC50_nM>
5795742.2

$$$$
