ml_pose_6
  PandaDock generated structure

 13 13  0  0  0  0  0  0  0  0999 V2000
  -14.4260  -17.2272    9.6053 O   0  0  0  0  0  0  0  0  0  0  0  0
  -15.2727  -17.5790    8.6047 C   0  0  0  0  0  0  0  0  0  0  0  0
  -15.1886  -16.9205    7.4147 C   0  0  0  0  0  0  0  0  0  0  0  0
  -16.3633  -18.4362    8.8095 C   0  0  0  0  0  0  0  0  0  0  0  0
  -16.0934  -17.3480    6.2758 C   0  0  0  0  0  0  0  0  0  0  0  0
  -14.1134  -15.9588    7.0597 C   0  0  0  0  0  0  0  0  0  0  0  0
  -17.1435  -18.2211    6.6407 C   0  0  0  0  0  0  0  0  0  0  0  0
  -17.2876  -18.8224    7.8005 C   0  0  0  0  0  0  0  0  0  0  0  0
  -16.4349  -19.1066   10.2890 C   0  0  0  0  0  0  0  0  0  0  0  0
  -12.9139  -16.5682    6.4104 C   0  0  0  0  0  0  0  0  0  0  0  0
  -14.6037  -14.7474    6.3650 C   0  0  0  0  0  0  0  0  0  0  0  0
  -17.6774  -18.5901   10.9571 C   0  0  0  0  0  0  0  0  0  0  0  0
  -16.5816  -20.5746   10.1076 C   0  0  0  0  0  0  0  0  0  0  0  0
  1  2  1  0  0  0  0
  2  3  1  0  0  0  0
  2  4  1  0  0  0  0
  3  5  1  0  0  0  0
  3  6  1  0  0  0  0
  4  8  1  0  0  0  0
  4  9  1  0  0  0  0
  5  7  1  0  0  0  0
  6 10  1  0  0  0  0
  6 11  1  0  0  0  0
  7  8  1  0  0  0  0
  9 12  1  0  0  0  0
  9 13  1  0  0  0  0
M  END
>  <Score>
0.165909

>  <Energy>
-9.500840

>  <Confidence>
0.834091

>  <Binding_Affinity>
-5.186502

>  <IC50_nM>
157716.5

$$$$
