ml_pose_20
  PandaDock generated structure

 13 13  0  0  0  0  0  0  0  0999 V2000
  -16.1777  -19.0355    9.6533 O   0  0  0  0  0  0  0  0  0  0  0  0
  -15.8351  -18.0724    8.4752 C   0  0  0  0  0  0  0  0  0  0  0  0
  -16.3386  -16.8130    8.6892 C   0  0  0  0  0  0  0  0  0  0  0  0
  -15.0326  -18.4335    7.4564 C   0  0  0  0  0  0  0  0  0  0  0  0
  -16.0128  -15.8617    7.7616 C   0  0  0  0  0  0  0  0  0  0  0  0
  -17.2071  -16.2824    9.8818 C   0  0  0  0  0  0  0  0  0  0  0  0
  -15.2234  -16.2176    6.6263 C   0  0  0  0  0  0  0  0  0  0  0  0
  -14.6020  -17.5250    6.5349 C   0  0  0  0  0  0  0  0  0  0  0  0
  -14.5231  -19.9109    7.4055 C   0  0  0  0  0  0  0  0  0  0  0  0
  -16.5296  -15.7706   10.9769 C   0  0  0  0  0  0  0  0  0  0  0  0
  -18.4488  -15.6536    9.3598 C   0  0  0  0  0  0  0  0  0  0  0  0
  -15.1793  -20.6378    6.3355 C   0  0  0  0  0  0  0  0  0  0  0  0
  -12.9898  -19.8860    7.1836 C   0  0  0  0  0  0  0  0  0  0  0  0
  1  2  1  0  0  0  0
  2  3  1  0  0  0  0
  2  4  1  0  0  0  0
  3  5  1  0  0  0  0
  3  6  1  0  0  0  0
  4  8  1  0  0  0  0
  4  9  1  0  0  0  0
  5  7  1  0  0  0  0
  6 10  1  0  0  0  0
  6 11  1  0  0  0  0
  7  8  1  0  0  0  0
  9 12  1  0  0  0  0
  9 13  1  0  0  0  0
M  END
>  <Score>
0.253072

>  <Energy>
-5.108849

>  <Confidence>
0.746928

>  <Binding_Affinity>
-3.000000

>  <IC50_nM>
6320605.5

$$$$
