ml_pose_25
  PandaDock generated structure

 13 13  0  0  0  0  0  0  0  0999 V2000
  -17.5953  -17.2212    8.6403 O   0  0  0  0  0  0  0  0  0  0  0  0
  -16.2242  -17.5552    8.3420 C   0  0  0  0  0  0  0  0  0  0  0  0
  -15.7700  -17.3558    7.0606 C   0  0  0  0  0  0  0  0  0  0  0  0
  -15.2994  -18.1787    9.2556 C   0  0  0  0  0  0  0  0  0  0  0  0
  -14.5995  -17.6040    6.6249 C   0  0  0  0  0  0  0  0  0  0  0  0
  -16.8716  -16.8196    6.0640 C   0  0  0  0  0  0  0  0  0  0  0  0
  -13.6553  -18.1869    7.5970 C   0  0  0  0  0  0  0  0  0  0  0  0
  -14.0162  -18.4564    8.8568 C   0  0  0  0  0  0  0  0  0  0  0  0
  -15.8211  -18.4214   10.6515 C   0  0  0  0  0  0  0  0  0  0  0  0
  -16.6100  -15.1688    5.8907 C   0  0  0  0  0  0  0  0  0  0  0  0
  -16.6835  -17.3936    4.7445 C   0  0  0  0  0  0  0  0  0  0  0  0
  -16.0571  -19.9519   10.9882 C   0  0  0  0  0  0  0  0  0  0  0  0
  -14.8968  -17.7866   11.6238 C   0  0  0  0  0  0  0  0  0  0  0  0
  1  2  1  0  0  0  0
  2  3  1  0  0  0  0
  2  4  1  0  0  0  0
  3  5  1  0  0  0  0
  3  6  1  0  0  0  0
  4  8  1  0  0  0  0
  4  9  1  0  0  0  0
  5  7  1  0  0  0  0
  6 10  1  0  0  0  0
  6 11  1  0  0  0  0
  7  8  1  0  0  0  0
  9 12  1  0  0  0  0
  9 13  1  0  0  0  0
M  END
>  <Score>
0.125166

>  <Energy>
-5.423562

>  <Confidence>
0.874834

>  <Binding_Affinity>
-6.935206

>  <IC50_nM>
8240.2

$$$$
ml_pose_27
  PandaDock generated structure

 13 13  0  0  0  0  0  0  0  0999 V2000
  -14.0157  -17.3190    9.1997 O   0  0  0  0  0  0  0  0  0  0  0  0
  -15.1763  -17.6569    8.5966 C   0  0  0  0  0  0  0  0  0  0  0  0
  -15.9881  -18.6213    8.7528 C   0  0  0  0  0  0  0  0  0  0  0  0
  -15.5425  -16.8474    7.3880 C   0  0  0  0  0  0  0  0  0  0  0  0
  -17.1623  -18.8630    8.0577 C   0  0  0  0  0  0  0  0  0  0  0  0
  -15.5943  -19.4889   10.0448 C   0  0  0  0  0  0  0  0  0  0  0  0
  -17.6201  -18.1796    7.0352 C   0  0  0  0  0  0  0  0  0  0  0  0
  -16.6793  -17.0604    6.7182 C   0  0  0  0  0  0  0  0  0  0  0  0
  -14.7209  -15.6042    6.9934 C   0  0  0  0  0  0  0  0  0  0  0  0
  -16.4068  -19.1869   11.3058 C   0  0  0  0  0  0  0  0  0  0  0  0
  -15.8772  -20.9913    9.6875 C   0  0  0  0  0  0  0  0  0  0  0  0
  -13.7917  -15.9458    5.7798 C   0  0  0  0  0  0  0  0  0  0  0  0
  -15.5248  -14.3352    6.7804 C   0  0  0  0  0  0  0  0  0  0  0  0
  1  2  1  0  0  0  0
  2  3  1  0  0  0  0
  2  4  1  0  0  0  0
  3  5  1  0  0  0  0
  3  6  1  0  0  0  0
  4  8  1  0  0  0  0
  4  9  1  0  0  0  0
  5  7  1  0  0  0  0
  6 10  1  0  0  0  0
  6 11  1  0  0  0  0
  7  8  1  0  0  0  0
  9 12  1  0  0  0  0
  9 13  1  0  0  0  0
M  END
>  <Score>
0.136602

>  <Energy>
-6.446121

>  <Confidence>
0.863398

>  <Binding_Affinity>
-6.089702

>  <IC50_nM>
34336.7

$$$$
ml_pose_15
  PandaDock generated structure

 13 13  0  0  0  0  0  0  0  0999 V2000
  -16.1674  -18.8867    9.7047 O   0  0  0  0  0  0  0  0  0  0  0  0
  -15.7864  -18.0282    8.6017 C   0  0  0  0  0  0  0  0  0  0  0  0
  -14.7042  -17.1760    8.6617 C   0  0  0  0  0  0  0  0  0  0  0  0
  -16.5989  -18.0446    7.5501 C   0  0  0  0  0  0  0  0  0  0  0  0
  -14.4060  -16.3557    7.6636 C   0  0  0  0  0  0  0  0  0  0  0  0
  -13.8146  -17.2576    9.9615 C   0  0  0  0  0  0  0  0  0  0  0  0
  -15.2727  -16.3887    6.5096 C   0  0  0  0  0  0  0  0  0  0  0  0
  -16.4558  -17.1845    6.5541 C   0  0  0  0  0  0  0  0  0  0  0  0
  -17.7327  -19.0024    7.4486 C   0  0  0  0  0  0  0  0  0  0  0  0
  -12.6363  -18.0723    9.7583 C   0  0  0  0  0  0  0  0  0  0  0  0
  -13.4967  -15.7570   10.2276 C   0  0  0  0  0  0  0  0  0  0  0  0
  -19.1760  -18.1922    7.4849 C   0  0  0  0  0  0  0  0  0  0  0  0
  -17.8524  -19.7542    6.2136 C   0  0  0  0  0  0  0  0  0  0  0  0
  1  2  1  0  0  0  0
  2  3  1  0  0  0  0
  2  4  1  0  0  0  0
  3  5  1  0  0  0  0
  3  6  1  0  0  0  0
  4  8  1  0  0  0  0
  4  9  1  0  0  0  0
  5  7  1  0  0  0  0
  6 10  1  0  0  0  0
  6 11  1  0  0  0  0
  7  8  1  0  0  0  0
  9 12  1  0  0  0  0
  9 13  1  0  0  0  0
M  END
>  <Score>
0.143743

>  <Energy>
-6.913862

>  <Confidence>
0.856257

>  <Binding_Affinity>
-5.535417

>  <IC50_nM>
87517.4

$$$$
ml_pose_23
  PandaDock generated structure

 13 13  0  0  0  0  0  0  0  0999 V2000
  -16.0327  -16.3025    6.8875 O   0  0  0  0  0  0  0  0  0  0  0  0
  -15.7469  -17.3553    7.7371 C   0  0  0  0  0  0  0  0  0  0  0  0
  -14.5131  -17.3649    8.3359 C   0  0  0  0  0  0  0  0  0  0  0  0
  -16.8258  -18.2203    8.0658 C   0  0  0  0  0  0  0  0  0  0  0  0
  -14.2578  -18.4193    9.3065 C   0  0  0  0  0  0  0  0  0  0  0  0
  -13.4171  -16.3900    7.9853 C   0  0  0  0  0  0  0  0  0  0  0  0
  -15.2988  -19.2602    9.7039 C   0  0  0  0  0  0  0  0  0  0  0  0
  -16.5881  -19.1919    9.0211 C   0  0  0  0  0  0  0  0  0  0  0  0
  -18.2457  -18.0643    7.4154 C   0  0  0  0  0  0  0  0  0  0  0  0
  -13.2862  -15.2792    8.9550 C   0  0  0  0  0  0  0  0  0  0  0  0
  -12.1780  -17.1300    7.7245 C   0  0  0  0  0  0  0  0  0  0  0  0
  -18.4541  -19.1332    6.6177 C   0  0  0  0  0  0  0  0  0  0  0  0
  -19.2557  -17.9890    8.5844 C   0  0  0  0  0  0  0  0  0  0  0  0
  1  2  1  0  0  0  0
  2  3  1  0  0  0  0
  2  4  1  0  0  0  0
  3  5  1  0  0  0  0
  3  6  1  0  0  0  0
  4  8  1  0  0  0  0
  4  9  1  0  0  0  0
  5  7  1  0  0  0  0
  6 10  1  0  0  0  0
  6 11  1  0  0  0  0
  7  8  1  0  0  0  0
  9 12  1  0  0  0  0
  9 13  1  0  0  0  0
M  END
>  <Score>
0.164756

>  <Energy>
-6.511359

>  <Confidence>
0.835244

>  <Binding_Affinity>
-3.630855

>  <IC50_nM>
2179170.8

$$$$
ml_pose_12
  PandaDock generated structure

 13 13  0  0  0  0  0  0  0  0999 V2000
  -15.4795  -16.8372    9.9289 O   0  0  0  0  0  0  0  0  0  0  0  0
  -15.6099  -17.4447    8.7702 C   0  0  0  0  0  0  0  0  0  0  0  0
  -14.7389  -18.3979    8.2979 C   0  0  0  0  0  0  0  0  0  0  0  0
  -16.5965  -17.0932    7.9395 C   0  0  0  0  0  0  0  0  0  0  0  0
  -14.7910  -18.9683    7.0036 C   0  0  0  0  0  0  0  0  0  0  0  0
  -13.5743  -18.6979    9.1387 C   0  0  0  0  0  0  0  0  0  0  0  0
  -15.9591  -18.5565    6.1489 C   0  0  0  0  0  0  0  0  0  0  0  0
  -16.9283  -17.6449    6.6904 C   0  0  0  0  0  0  0  0  0  0  0  0
  -17.7707  -16.1694    8.3148 C   0  0  0  0  0  0  0  0  0  0  0  0
  -13.6609  -20.0153    9.8196 C   0  0  0  0  0  0  0  0  0  0  0  0
  -12.1288  -18.6991    8.3677 C   0  0  0  0  0  0  0  0  0  0  0  0
  -17.6738  -14.8281    7.6251 C   0  0  0  0  0  0  0  0  0  0  0  0
  -19.1883  -16.7475    8.2948 C   0  0  0  0  0  0  0  0  0  0  0  0
  1  2  1  0  0  0  0
  2  3  1  0  0  0  0
  2  4  1  0  0  0  0
  3  5  1  0  0  0  0
  3  6  1  0  0  0  0
  4  8  1  0  0  0  0
  4  9  1  0  0  0  0
  5  7  1  0  0  0  0
  6 10  1  0  0  0  0
  6 11  1  0  0  0  0
  7  8  1  0  0  0  0
  9 12  1  0  0  0  0
  9 13  1  0  0  0  0
M  END
>  <Score>
0.226112

>  <Energy>
-5.867602

>  <Confidence>
0.773888

>  <Binding_Affinity>
-3.000000

>  <IC50_nM>
6320605.5

$$$$
ml_pose_9
  PandaDock generated structure

 13 13  0  0  0  0  0  0  0  0999 V2000
  -17.0181  -17.6454    6.7049 O   0  0  0  0  0  0  0  0  0  0  0  0
  -16.0549  -17.7159    7.8670 C   0  0  0  0  0  0  0  0  0  0  0  0
  -15.1923  -18.7774    7.8341 C   0  0  0  0  0  0  0  0  0  0  0  0
  -16.0785  -16.7514    8.6670 C   0  0  0  0  0  0  0  0  0  0  0  0
  -14.3492  -18.7796    8.8968 C   0  0  0  0  0  0  0  0  0  0  0  0
  -15.3010  -19.8711    6.7954 C   0  0  0  0  0  0  0  0  0  0  0  0
  -14.3892  -17.7486    9.8830 C   0  0  0  0  0  0  0  0  0  0  0  0
  -15.1319  -16.5956    9.7058 C   0  0  0  0  0  0  0  0  0  0  0  0
  -16.9787  -15.3878    8.5601 C   0  0  0  0  0  0  0  0  0  0  0  0
  -14.1771  -19.8511    5.7708 C   0  0  0  0  0  0  0  0  0  0  0  0
  -15.1611  -21.2543    7.4916 C   0  0  0  0  0  0  0  0  0  0  0  0
  -18.0813  -15.5716    9.5850 C   0  0  0  0  0  0  0  0  0  0  0  0
  -16.1869  -14.1501    8.5784 C   0  0  0  0  0  0  0  0  0  0  0  0
  1  2  1  0  0  0  0
  2  3  1  0  0  0  0
  2  4  1  0  0  0  0
  3  5  1  0  0  0  0
  3  6  1  0  0  0  0
  4  8  1  0  0  0  0
  4  9  1  0  0  0  0
  5  7  1  0  0  0  0
  6 10  1  0  0  0  0
  6 11  1  0  0  0  0
  7  8  1  0  0  0  0
  9 12  1  0  0  0  0
  9 13  1  0  0  0  0
M  END
>  <Score>
0.237096

>  <Energy>
-5.184448

>  <Confidence>
0.762904

>  <Binding_Affinity>
-3.000000

>  <IC50_nM>
6320605.5

$$$$
ml_pose_17
  PandaDock generated structure

 13 13  0  0  0  0  0  0  0  0999 V2000
  -13.7302  -17.9273    7.8228 O   0  0  0  0  0  0  0  0  0  0  0  0
  -15.0826  -17.8350    8.1120 C   0  0  0  0  0  0  0  0  0  0  0  0
  -15.6221  -16.5160    8.2195 C   0  0  0  0  0  0  0  0  0  0  0  0
  -15.9703  -18.8016    8.1680 C   0  0  0  0  0  0  0  0  0  0  0  0
  -16.9565  -16.4085    8.4744 C   0  0  0  0  0  0  0  0  0  0  0  0
  -14.7686  -15.2727    8.0544 C   0  0  0  0  0  0  0  0  0  0  0  0
  -17.8193  -17.4074    8.5303 C   0  0  0  0  0  0  0  0  0  0  0  0
  -17.3265  -18.6862    8.4792 C   0  0  0  0  0  0  0  0  0  0  0  0
  -15.3869  -20.2557    8.0426 C   0  0  0  0  0  0  0  0  0  0  0  0
  -14.7839  -14.6577    6.6682 C   0  0  0  0  0  0  0  0  0  0  0  0
  -15.1086  -14.2338    9.2048 C   0  0  0  0  0  0  0  0  0  0  0  0
  -15.3720  -21.0240    9.4619 C   0  0  0  0  0  0  0  0  0  0  0  0
  -16.1725  -21.0741    7.1020 C   0  0  0  0  0  0  0  0  0  0  0  0
  1  2  1  0  0  0  0
  2  3  1  0  0  0  0
  2  4  1  0  0  0  0
  3  5  1  0  0  0  0
  3  6  1  0  0  0  0
  4  8  1  0  0  0  0
  4  9  1  0  0  0  0
  5  7  1  0  0  0  0
  6 10  1  0  0  0  0
  6 11  1  0  0  0  0
  7  8  1  0  0  0  0
  9 12  1  0  0  0  0
  9 13  1  0  0  0  0
M  END
>  <Score>
0.245922

>  <Energy>
-7.897180

>  <Confidence>
0.754078

>  <Binding_Affinity>
-3.000000

>  <IC50_nM>
6320605.5

$$$$
ml_pose_1
  PandaDock generated structure

 13 13  0  0  0  0  0  0  0  0999 V2000
  -15.1096  -17.4169   10.0073 O   0  0  0  0  0  0  0  0  0  0  0  0
  -15.5938  -17.6732    8.7600 C   0  0  0  0  0  0  0  0  0  0  0  0
  -16.5201  -16.8546    8.1488 C   0  0  0  0  0  0  0  0  0  0  0  0
  -14.9638  -18.5091    7.9730 C   0  0  0  0  0  0  0  0  0  0  0  0
  -17.0221  -17.0996    6.8923 C   0  0  0  0  0  0  0  0  0  0  0  0
  -17.1890  -15.7768    8.9773 C   0  0  0  0  0  0  0  0  0  0  0  0
  -16.4290  -18.0495    6.1635 C   0  0  0  0  0  0  0  0  0  0  0  0
  -15.3364  -18.9329    6.7680 C   0  0  0  0  0  0  0  0  0  0  0  0
  -13.7894  -19.4843    8.6012 C   0  0  0  0  0  0  0  0  0  0  0  0
  -16.5227  -14.3382    8.6525 C   0  0  0  0  0  0  0  0  0  0  0  0
  -18.6888  -15.6257    8.8355 C   0  0  0  0  0  0  0  0  0  0  0  0
  -14.2385  -20.8677    8.9219 C   0  0  0  0  0  0  0  0  0  0  0  0
  -12.6968  -19.4715    7.6387 C   0  0  0  0  0  0  0  0  0  0  0  0
  1  2  1  0  0  0  0
  2  3  1  0  0  0  0
  2  4  1  0  0  0  0
  3  5  1  0  0  0  0
  3  6  1  0  0  0  0
  4  8  1  0  0  0  0
  4  9  1  0  0  0  0
  5  7  1  0  0  0  0
  6 10  1  0  0  0  0
  6 11  1  0  0  0  0
  7  8  1  0  0  0  0
  9 12  1  0  0  0  0
  9 13  1  0  0  0  0
M  END
>  <Score>
0.246206

>  <Energy>
-8.630338

>  <Confidence>
0.753794

>  <Binding_Affinity>
-3.000000

>  <IC50_nM>
6320605.5

$$$$
ml_pose_28
  PandaDock generated structure

 13 13  0  0  0  0  0  0  0  0999 V2000
  -15.8443  -16.0126    7.1099 O   0  0  0  0  0  0  0  0  0  0  0  0
  -15.8311  -17.1465    7.8489 C   0  0  0  0  0  0  0  0  0  0  0  0
  -15.2974  -17.2115    9.2378 C   0  0  0  0  0  0  0  0  0  0  0  0
  -16.0778  -18.4617    7.2355 C   0  0  0  0  0  0  0  0  0  0  0  0
  -15.1227  -18.3615    9.7572 C   0  0  0  0  0  0  0  0  0  0  0  0
  -15.0106  -15.8637    9.9956 C   0  0  0  0  0  0  0  0  0  0  0  0
  -15.4241  -19.5732    9.2221 C   0  0  0  0  0  0  0  0  0  0  0  0
  -15.9080  -19.6793    7.8158 C   0  0  0  0  0  0  0  0  0  0  0  0
  -16.5939  -18.3157    5.9086 C   0  0  0  0  0  0  0  0  0  0  0  0
  -16.0437  -15.4663   10.8934 C   0  0  0  0  0  0  0  0  0  0  0  0
  -13.6308  -15.9614   10.6731 C   0  0  0  0  0  0  0  0  0  0  0  0
  -15.4972  -18.7986    4.8271 C   0  0  0  0  0  0  0  0  0  0  0  0
  -17.8184  -19.2478    5.8150 C   0  0  0  0  0  0  0  0  0  0  0  0
  1  2  1  0  0  0  0
  2  3  1  0  0  0  0
  2  4  1  0  0  0  0
  3  5  1  0  0  0  0
  3  6  1  0  0  0  0
  4  8  1  0  0  0  0
  4  9  1  0  0  0  0
  5  7  1  0  0  0  0
  6 10  1  0  0  0  0
  6 11  1  0  0  0  0
  7  8  1  0  0  0  0
  9 12  1  0  0  0  0
  9 13  1  0  0  0  0
M  END
>  <Score>
0.276145

>  <Energy>
-5.358570

>  <Confidence>
0.723855

>  <Binding_Affinity>
-3.000000

>  <IC50_nM>
6320605.5

$$$$
ml_pose_16
  PandaDock generated structure

 13 13  0  0  0  0  0  0  0  0999 V2000
  -14.1548  -16.5523    7.7632 O   0  0  0  0  0  0  0  0  0  0  0  0
  -15.2580  -17.3183    8.1211 C   0  0  0  0  0  0  0  0  0  0  0  0
  -16.4260  -17.2325    7.2890 C   0  0  0  0  0  0  0  0  0  0  0  0
  -15.1943  -18.2403    9.2522 C   0  0  0  0  0  0  0  0  0  0  0  0
  -17.4474  -18.1074    7.5351 C   0  0  0  0  0  0  0  0  0  0  0  0
  -16.4399  -16.2499    6.0732 C   0  0  0  0  0  0  0  0  0  0  0  0
  -17.3743  -19.0236    8.5043 C   0  0  0  0  0  0  0  0  0  0  0  0
  -16.2851  -19.1593    9.4347 C   0  0  0  0  0  0  0  0  0  0  0  0
  -13.9154  -18.3101   10.0571 C   0  0  0  0  0  0  0  0  0  0  0  0
  -16.1405  -17.0072    4.7544 C   0  0  0  0  0  0  0  0  0  0  0  0
  -17.8629  -15.6752    6.1503 C   0  0  0  0  0  0  0  0  0  0  0  0
  -14.2090  -17.5511   11.3346 C   0  0  0  0  0  0  0  0  0  0  0  0
  -13.3925  -19.6727   10.0708 C   0  0  0  0  0  0  0  0  0  0  0  0
  1  2  1  0  0  0  0
  2  3  1  0  0  0  0
  2  4  1  0  0  0  0
  3  5  1  0  0  0  0
  3  6  1  0  0  0  0
  4  8  1  0  0  0  0
  4  9  1  0  0  0  0
  5  7  1  0  0  0  0
  6 10  1  0  0  0  0
  6 11  1  0  0  0  0
  7  8  1  0  0  0  0
  9 12  1  0  0  0  0
  9 13  1  0  0  0  0
M  END
>  <Score>
0.276533

>  <Energy>
-6.639438

>  <Confidence>
0.723467

>  <Binding_Affinity>
-3.000000

>  <IC50_nM>
6320605.5

$$$$
