ml_pose_9
  PandaDock generated structure

 13 13  0  0  0  0  0  0  0  0999 V2000
  -17.0181  -17.6454    6.7049 O   0  0  0  0  0  0  0  0  0  0  0  0
  -16.0549  -17.7159    7.8670 C   0  0  0  0  0  0  0  0  0  0  0  0
  -15.1923  -18.7774    7.8341 C   0  0  0  0  0  0  0  0  0  0  0  0
  -16.0785  -16.7514    8.6670 C   0  0  0  0  0  0  0  0  0  0  0  0
  -14.3492  -18.7796    8.8968 C   0  0  0  0  0  0  0  0  0  0  0  0
  -15.3010  -19.8711    6.7954 C   0  0  0  0  0  0  0  0  0  0  0  0
  -14.3892  -17.7486    9.8830 C   0  0  0  0  0  0  0  0  0  0  0  0
  -15.1319  -16.5956    9.7058 C   0  0  0  0  0  0  0  0  0  0  0  0
  -16.9787  -15.3878    8.5601 C   0  0  0  0  0  0  0  0  0  0  0  0
  -14.1771  -19.8511    5.7708 C   0  0  0  0  0  0  0  0  0  0  0  0
  -15.1611  -21.2543    7.4916 C   0  0  0  0  0  0  0  0  0  0  0  0
  -18.0813  -15.5716    9.5850 C   0  0  0  0  0  0  0  0  0  0  0  0
  -16.1869  -14.1501    8.5784 C   0  0  0  0  0  0  0  0  0  0  0  0
  1  2  1  0  0  0  0
  2  3  1  0  0  0  0
  2  4  1  0  0  0  0
  3  5  1  0  0  0  0
  3  6  1  0  0  0  0
  4  8  1  0  0  0  0
  4  9  1  0  0  0  0
  5  7  1  0  0  0  0
  6 10  1  0  0  0  0
  6 11  1  0  0  0  0
  7  8  1  0  0  0  0
  9 12  1  0  0  0  0
  9 13  1  0  0  0  0
M  END
>  <Score>
0.237096

>  <Energy>
-5.184448

>  <Confidence>
0.762904

>  <Binding_Affinity>
-3.000000

>  <IC50_nM>
6320605.5

$$$$
