ml_pose_25
  PandaDock generated structure

 13 13  0  0  0  0  0  0  0  0999 V2000
  -17.5953  -17.2212    8.6403 O   0  0  0  0  0  0  0  0  0  0  0  0
  -16.2242  -17.5552    8.3420 C   0  0  0  0  0  0  0  0  0  0  0  0
  -15.7700  -17.3558    7.0606 C   0  0  0  0  0  0  0  0  0  0  0  0
  -15.2994  -18.1787    9.2556 C   0  0  0  0  0  0  0  0  0  0  0  0
  -14.5995  -17.6040    6.6249 C   0  0  0  0  0  0  0  0  0  0  0  0
  -16.8716  -16.8196    6.0640 C   0  0  0  0  0  0  0  0  0  0  0  0
  -13.6553  -18.1869    7.5970 C   0  0  0  0  0  0  0  0  0  0  0  0
  -14.0162  -18.4564    8.8568 C   0  0  0  0  0  0  0  0  0  0  0  0
  -15.8211  -18.4214   10.6515 C   0  0  0  0  0  0  0  0  0  0  0  0
  -16.6100  -15.1688    5.8907 C   0  0  0  0  0  0  0  0  0  0  0  0
  -16.6835  -17.3936    4.7445 C   0  0  0  0  0  0  0  0  0  0  0  0
  -16.0571  -19.9519   10.9882 C   0  0  0  0  0  0  0  0  0  0  0  0
  -14.8968  -17.7866   11.6238 C   0  0  0  0  0  0  0  0  0  0  0  0
  1  2  1  0  0  0  0
  2  3  1  0  0  0  0
  2  4  1  0  0  0  0
  3  5  1  0  0  0  0
  3  6  1  0  0  0  0
  4  8  1  0  0  0  0
  4  9  1  0  0  0  0
  5  7  1  0  0  0  0
  6 10  1  0  0  0  0
  6 11  1  0  0  0  0
  7  8  1  0  0  0  0
  9 12  1  0  0  0  0
  9 13  1  0  0  0  0
M  END
>  <Score>
0.125166

>  <Energy>
-5.423562

>  <Confidence>
0.874834

>  <Binding_Affinity>
-9.015768

>  <IC50_nM>
245.9

$$$$
