ml_pose_15
  PandaDock generated structure

 13 13  0  0  0  0  0  0  0  0999 V2000
  -16.1674  -18.8867    9.7047 O   0  0  0  0  0  0  0  0  0  0  0  0
  -15.7864  -18.0282    8.6017 C   0  0  0  0  0  0  0  0  0  0  0  0
  -14.7042  -17.1760    8.6617 C   0  0  0  0  0  0  0  0  0  0  0  0
  -16.5989  -18.0446    7.5501 C   0  0  0  0  0  0  0  0  0  0  0  0
  -14.4060  -16.3557    7.6636 C   0  0  0  0  0  0  0  0  0  0  0  0
  -13.8146  -17.2576    9.9615 C   0  0  0  0  0  0  0  0  0  0  0  0
  -15.2727  -16.3887    6.5096 C   0  0  0  0  0  0  0  0  0  0  0  0
  -16.4558  -17.1845    6.5541 C   0  0  0  0  0  0  0  0  0  0  0  0
  -17.7327  -19.0024    7.4486 C   0  0  0  0  0  0  0  0  0  0  0  0
  -12.6363  -18.0723    9.7583 C   0  0  0  0  0  0  0  0  0  0  0  0
  -13.4967  -15.7570   10.2276 C   0  0  0  0  0  0  0  0  0  0  0  0
  -19.1760  -18.1922    7.4849 C   0  0  0  0  0  0  0  0  0  0  0  0
  -17.8524  -19.7542    6.2136 C   0  0  0  0  0  0  0  0  0  0  0  0
  1  2  1  0  0  0  0
  2  3  1  0  0  0  0
  2  4  1  0  0  0  0
  3  5  1  0  0  0  0
  3  6  1  0  0  0  0
  4  8  1  0  0  0  0
  4  9  1  0  0  0  0
  5  7  1  0  0  0  0
  6 10  1  0  0  0  0
  6 11  1  0  0  0  0
  7  8  1  0  0  0  0
  9 12  1  0  0  0  0
  9 13  1  0  0  0  0
M  END
>  <Score>
0.143743

>  <Energy>
-6.913862

>  <Confidence>
0.856257

>  <Binding_Affinity>
-7.196042

>  <IC50_nM>
5305.5

$$$$
