ml_pose_17
  PandaDock generated structure

 13 13  0  0  0  0  0  0  0  0999 V2000
  -13.7302  -17.9273    7.8228 O   0  0  0  0  0  0  0  0  0  0  0  0
  -15.0826  -17.8350    8.1120 C   0  0  0  0  0  0  0  0  0  0  0  0
  -15.6221  -16.5160    8.2195 C   0  0  0  0  0  0  0  0  0  0  0  0
  -15.9703  -18.8016    8.1680 C   0  0  0  0  0  0  0  0  0  0  0  0
  -16.9565  -16.4085    8.4744 C   0  0  0  0  0  0  0  0  0  0  0  0
  -14.7686  -15.2727    8.0544 C   0  0  0  0  0  0  0  0  0  0  0  0
  -17.8193  -17.4074    8.5303 C   0  0  0  0  0  0  0  0  0  0  0  0
  -17.3265  -18.6862    8.4792 C   0  0  0  0  0  0  0  0  0  0  0  0
  -15.3869  -20.2557    8.0426 C   0  0  0  0  0  0  0  0  0  0  0  0
  -14.7839  -14.6577    6.6682 C   0  0  0  0  0  0  0  0  0  0  0  0
  -15.1086  -14.2338    9.2048 C   0  0  0  0  0  0  0  0  0  0  0  0
  -15.3720  -21.0240    9.4619 C   0  0  0  0  0  0  0  0  0  0  0  0
  -16.1725  -21.0741    7.1020 C   0  0  0  0  0  0  0  0  0  0  0  0
  1  2  1  0  0  0  0
  2  3  1  0  0  0  0
  2  4  1  0  0  0  0
  3  5  1  0  0  0  0
  3  6  1  0  0  0  0
  4  8  1  0  0  0  0
  4  9  1  0  0  0  0
  5  7  1  0  0  0  0
  6 10  1  0  0  0  0
  6 11  1  0  0  0  0
  7  8  1  0  0  0  0
  9 12  1  0  0  0  0
  9 13  1  0  0  0  0
M  END
>  <Score>
0.245922

>  <Energy>
-7.897180

>  <Confidence>
0.754078

>  <Binding_Affinity>
-3.325358

>  <IC50_nM>
3649598.5

$$$$
