ml_pose_28
  PandaDock generated structure

 13 13  0  0  0  0  0  0  0  0999 V2000
  -15.8443  -16.0126    7.1099 O   0  0  0  0  0  0  0  0  0  0  0  0
  -15.8311  -17.1465    7.8489 C   0  0  0  0  0  0  0  0  0  0  0  0
  -15.2974  -17.2115    9.2378 C   0  0  0  0  0  0  0  0  0  0  0  0
  -16.0778  -18.4617    7.2355 C   0  0  0  0  0  0  0  0  0  0  0  0
  -15.1227  -18.3615    9.7572 C   0  0  0  0  0  0  0  0  0  0  0  0
  -15.0106  -15.8637    9.9956 C   0  0  0  0  0  0  0  0  0  0  0  0
  -15.4241  -19.5732    9.2221 C   0  0  0  0  0  0  0  0  0  0  0  0
  -15.9080  -19.6793    7.8158 C   0  0  0  0  0  0  0  0  0  0  0  0
  -16.5939  -18.3157    5.9086 C   0  0  0  0  0  0  0  0  0  0  0  0
  -16.0437  -15.4663   10.8934 C   0  0  0  0  0  0  0  0  0  0  0  0
  -13.6308  -15.9614   10.6731 C   0  0  0  0  0  0  0  0  0  0  0  0
  -15.4972  -18.7986    4.8271 C   0  0  0  0  0  0  0  0  0  0  0  0
  -17.8184  -19.2478    5.8150 C   0  0  0  0  0  0  0  0  0  0  0  0
  1  2  1  0  0  0  0
  2  3  1  0  0  0  0
  2  4  1  0  0  0  0
  3  5  1  0  0  0  0
  3  6  1  0  0  0  0
  4  8  1  0  0  0  0
  4  9  1  0  0  0  0
  5  7  1  0  0  0  0
  6 10  1  0  0  0  0
  6 11  1  0  0  0  0
  7  8  1  0  0  0  0
  9 12  1  0  0  0  0
  9 13  1  0  0  0  0
M  END
>  <Score>
0.276145

>  <Energy>
-5.358570

>  <Confidence>
0.723855

>  <Binding_Affinity>
-3.000000

>  <IC50_nM>
6320605.5

$$$$
