ml_pose_1
  PandaDock generated structure

 13 13  0  0  0  0  0  0  0  0999 V2000
  -15.1096  -17.4169   10.0073 O   0  0  0  0  0  0  0  0  0  0  0  0
  -15.5938  -17.6732    8.7600 C   0  0  0  0  0  0  0  0  0  0  0  0
  -16.5201  -16.8546    8.1488 C   0  0  0  0  0  0  0  0  0  0  0  0
  -14.9638  -18.5091    7.9730 C   0  0  0  0  0  0  0  0  0  0  0  0
  -17.0221  -17.0996    6.8923 C   0  0  0  0  0  0  0  0  0  0  0  0
  -17.1890  -15.7768    8.9773 C   0  0  0  0  0  0  0  0  0  0  0  0
  -16.4290  -18.0495    6.1635 C   0  0  0  0  0  0  0  0  0  0  0  0
  -15.3364  -18.9329    6.7680 C   0  0  0  0  0  0  0  0  0  0  0  0
  -13.7894  -19.4843    8.6012 C   0  0  0  0  0  0  0  0  0  0  0  0
  -16.5227  -14.3382    8.6525 C   0  0  0  0  0  0  0  0  0  0  0  0
  -18.6888  -15.6257    8.8355 C   0  0  0  0  0  0  0  0  0  0  0  0
  -14.2385  -20.8677    8.9219 C   0  0  0  0  0  0  0  0  0  0  0  0
  -12.6968  -19.4715    7.6387 C   0  0  0  0  0  0  0  0  0  0  0  0
  1  2  1  0  0  0  0
  2  3  1  0  0  0  0
  2  4  1  0  0  0  0
  3  5  1  0  0  0  0
  3  6  1  0  0  0  0
  4  8  1  0  0  0  0
  4  9  1  0  0  0  0
  5  7  1  0  0  0  0
  6 10  1  0  0  0  0
  6 11  1  0  0  0  0
  7  8  1  0  0  0  0
  9 12  1  0  0  0  0
  9 13  1  0  0  0  0
M  END
>  <Score>
0.246206

>  <Energy>
-8.630338

>  <Confidence>
0.753794

>  <Binding_Affinity>
-3.472274

>  <IC50_nM>
2848026.4

$$$$
