ml_pose_0
  PandaDock generated structure

 13 13  0  0  0  0  0  0  0  0999 V2000
  -17.1239  -18.8086    7.3119 O   0  0  0  0  0  0  0  0  0  0  0  0
  -16.1990  -18.0805    7.9604 C   0  0  0  0  0  0  0  0  0  0  0  0
  -16.2111  -16.6822    8.0719 C   0  0  0  0  0  0  0  0  0  0  0  0
  -15.0220  -18.5806    8.3713 C   0  0  0  0  0  0  0  0  0  0  0  0
  -15.2560  -15.7915    8.6007 C   0  0  0  0  0  0  0  0  0  0  0  0
  -17.6670  -16.1066    7.5557 C   0  0  0  0  0  0  0  0  0  0  0  0
  -14.1036  -16.4481    9.0142 C   0  0  0  0  0  0  0  0  0  0  0  0
  -13.8676  -17.7892    8.8888 C   0  0  0  0  0  0  0  0  0  0  0  0
  -14.6760  -20.1635    8.2306 C   0  0  0  0  0  0  0  0  0  0  0  0
  -18.4750  -15.7127    8.8191 C   0  0  0  0  0  0  0  0  0  0  0  0
  -17.4084  -14.7134    6.7503 C   0  0  0  0  0  0  0  0  0  0  0  0
  -13.8135  -20.4563    7.1577 C   0  0  0  0  0  0  0  0  0  0  0  0
  -14.2770  -20.7669    9.6074 C   0  0  0  0  0  0  0  0  0  0  0  0
  1  2  1  0  0  0  0
  2  3  1  0  0  0  0
  2  4  1  0  0  0  0
  3  5  1  0  0  0  0
  3  6  1  0  0  0  0
  4  8  1  0  0  0  0
  4  9  1  0  0  0  0
  5  7  1  0  0  0  0
  6 10  1  0  0  0  0
  6 11  1  0  0  0  0
  7  8  1  0  0  0  0
  9 12  1  0  0  0  0
  9 13  1  0  0  0  0
M  END
>  <Score>
0.355329

>  <Energy>
-6.197389

>  <Confidence>
0.644671

>  <Binding_Affinity>
-7.393423

>  <IC50_nM>
3802.1

$$$$
