ml_pose_8
  PandaDock generated structure

 13 13  0  0  0  0  0  0  0  0999 V2000
  -16.1611  -19.3660    7.2008 O   0  0  0  0  0  0  0  0  0  0  0  0
  -15.8285  -18.1797    7.8728 C   0  0  0  0  0  0  0  0  0  0  0  0
  -15.6148  -18.3291    9.2056 C   0  0  0  0  0  0  0  0  0  0  0  0
  -15.7182  -16.8998    7.1584 C   0  0  0  0  0  0  0  0  0  0  0  0
  -15.2242  -17.1407    9.8300 C   0  0  0  0  0  0  0  0  0  0  0  0
  -15.7142  -19.6095   10.0449 C   0  0  0  0  0  0  0  0  0  0  0  0
  -15.2722  -15.9738    9.3291 C   0  0  0  0  0  0  0  0  0  0  0  0
  -15.4307  -15.7466    7.9454 C   0  0  0  0  0  0  0  0  0  0  0  0
  -16.0129  -16.8658    5.7471 C   0  0  0  0  0  0  0  0  0  0  0  0
  -14.3312  -20.1658   10.1984 C   0  0  0  0  0  0  0  0  0  0  0  0
  -16.4254  -19.4647   11.2911 C   0  0  0  0  0  0  0  0  0  0  0  0
  -17.3786  -16.2521    5.4584 C   0  0  0  0  0  0  0  0  0  0  0  0
  -14.9880  -16.1064    5.0580 C   0  0  0  0  0  0  0  0  0  0  0  0
  1  2  1  0  0  0  0
  2  3  1  0  0  0  0
  2  4  1  0  0  0  0
  3  5  1  0  0  0  0
  3  6  1  0  0  0  0
  4  8  1  0  0  0  0
  4  9  1  0  0  0  0
  5  7  1  0  0  0  0
  6 10  1  0  0  0  0
  6 11  1  0  0  0  0
  7  8  1  0  0  0  0
  9 12  1  0  0  0  0
  9 13  1  0  0  0  0
M  END
>  <Score>
0.206594

>  <Energy>
-8.321478

>  <Confidence>
0.793406

>  <Binding_Affinity>
-10.368119

>  <IC50_nM>
25.1

$$$$
