ml_pose_25
  PandaDock generated structure

 13 13  0  0  0  0  0  0  0  0999 V2000
  -15.1935  -16.5676    6.6194 O   0  0  0  0  0  0  0  0  0  0  0  0
  -15.6233  -17.3485    7.7046 C   0  0  0  0  0  0  0  0  0  0  0  0
  -14.7169  -18.3331    8.0579 C   0  0  0  0  0  0  0  0  0  0  0  0
  -16.7007  -17.1265    8.4095 C   0  0  0  0  0  0  0  0  0  0  0  0
  -15.0880  -19.1794    9.1058 C   0  0  0  0  0  0  0  0  0  0  0  0
  -13.3488  -18.5565    7.4144 C   0  0  0  0  0  0  0  0  0  0  0  0
  -16.2271  -18.9784    9.8720 C   0  0  0  0  0  0  0  0  0  0  0  0
  -17.1725  -17.9349    9.4678 C   0  0  0  0  0  0  0  0  0  0  0  0
  -17.7686  -16.0223    8.0256 C   0  0  0  0  0  0  0  0  0  0  0  0
  -12.1752  -18.0261    8.2076 C   0  0  0  0  0  0  0  0  0  0  0  0
  -13.1542  -20.2104    7.2062 C   0  0  0  0  0  0  0  0  0  0  0  0
  -18.8683  -16.6373    7.1933 C   0  0  0  0  0  0  0  0  0  0  0  0
  -18.0629  -15.1789    9.0560 C   0  0  0  0  0  0  0  0  0  0  0  0
  1  2  1  0  0  0  0
  2  3  1  0  0  0  0
  2  4  1  0  0  0  0
  3  5  1  0  0  0  0
  3  6  1  0  0  0  0
  4  8  1  0  0  0  0
  4  9  1  0  0  0  0
  5  7  1  0  0  0  0
  6 10  1  0  0  0  0
  6 11  1  0  0  0  0
  7  8  1  0  0  0  0
  9 12  1  0  0  0  0
  9 13  1  0  0  0  0
M  END
>  <Score>
0.151046

>  <Energy>
-9.029412

>  <Confidence>
0.848954

>  <Binding_Affinity>
-11.479087

>  <IC50_nM>
3.8

$$$$
