ml_pose_11
  PandaDock generated structure

 13 13  0  0  0  0  0  0  0  0999 V2000
  -14.7455  -18.2027    9.8179 O   0  0  0  0  0  0  0  0  0  0  0  0
  -15.2897  -17.8234    8.6836 C   0  0  0  0  0  0  0  0  0  0  0  0
  -15.7648  -18.7550    7.7312 C   0  0  0  0  0  0  0  0  0  0  0  0
  -15.7544  -16.5229    8.3885 C   0  0  0  0  0  0  0  0  0  0  0  0
  -16.5671  -18.4497    6.5029 C   0  0  0  0  0  0  0  0  0  0  0  0
  -15.3725  -20.3506    8.0714 C   0  0  0  0  0  0  0  0  0  0  0  0
  -16.7717  -17.1686    6.4125 C   0  0  0  0  0  0  0  0  0  0  0  0
  -16.4405  -16.1531    7.3193 C   0  0  0  0  0  0  0  0  0  0  0  0
  -15.3372  -15.4075    9.5056 C   0  0  0  0  0  0  0  0  0  0  0  0
  -16.4684  -21.1030    8.5255 C   0  0  0  0  0  0  0  0  0  0  0  0
  -14.7947  -20.8533    6.6902 C   0  0  0  0  0  0  0  0  0  0  0  0
  -14.1040  -14.6099    8.8541 C   0  0  0  0  0  0  0  0  0  0  0  0
  -16.6895  -14.7001    9.8374 C   0  0  0  0  0  0  0  0  0  0  0  0
  1  2  1  0  0  0  0
  2  3  1  0  0  0  0
  2  4  1  0  0  0  0
  3  5  1  0  0  0  0
  3  6  1  0  0  0  0
  4  8  1  0  0  0  0
  4  9  1  0  0  0  0
  5  7  1  0  0  0  0
  6 10  1  0  0  0  0
  6 11  1  0  0  0  0
  7  8  1  0  0  0  0
  9 12  1  0  0  0  0
  9 13  1  0  0  0  0
M  END
>  <Score>
0.337286

>  <Energy>
-8.024102

>  <Confidence>
0.662714

>  <Binding_Affinity>
-7.754288

>  <IC50_nM>
2067.7

$$$$
