ml_pose_24
  PandaDock generated structure

 13 13  0  0  0  0  0  0  0  0999 V2000
  -17.4705  -17.3143    7.4157 O   0  0  0  0  0  0  0  0  0  0  0  0
  -16.2680  -17.5275    7.9079 C   0  0  0  0  0  0  0  0  0  0  0  0
  -15.4878  -18.5094    7.3216 C   0  0  0  0  0  0  0  0  0  0  0  0
  -15.7212  -16.9829    9.1196 C   0  0  0  0  0  0  0  0  0  0  0  0
  -14.2417  -18.8564    7.9205 C   0  0  0  0  0  0  0  0  0  0  0  0
  -15.9171  -19.1882    6.0849 C   0  0  0  0  0  0  0  0  0  0  0  0
  -13.7895  -18.2793    9.0360 C   0  0  0  0  0  0  0  0  0  0  0  0
  -14.5914  -17.2749    9.7057 C   0  0  0  0  0  0  0  0  0  0  0  0
  -16.6133  -15.8516    9.7504 C   0  0  0  0  0  0  0  0  0  0  0  0
  -15.2810  -18.6104    4.8607 C   0  0  0  0  0  0  0  0  0  0  0  0
  -15.6567  -20.7078    6.1580 C   0  0  0  0  0  0  0  0  0  0  0  0
  -17.2730  -16.3744   11.0052 C   0  0  0  0  0  0  0  0  0  0  0  0
  -15.7888  -14.6228   10.0537 C   0  0  0  0  0  0  0  0  0  0  0  0
  1  2  1  0  0  0  0
  2  3  1  0  0  0  0
  2  4  1  0  0  0  0
  3  5  1  0  0  0  0
  3  6  1  0  0  0  0
  4  8  1  0  0  0  0
  4  9  1  0  0  0  0
  5  7  1  0  0  0  0
  6 10  1  0  0  0  0
  6 11  1  0  0  0  0
  7  8  1  0  0  0  0
  9 12  1  0  0  0  0
  9 13  1  0  0  0  0
M  END
>  <Score>
0.110340

>  <Energy>
-5.132760

>  <Confidence>
0.889660

>  <Binding_Affinity>
-12.293202

>  <IC50_nM>
1.0

$$$$
