ml_pose_26
  PandaDock generated structure

 13 13  0  0  0  0  0  0  0  0999 V2000
  -17.5218  -18.1198    8.8670 O   0  0  0  0  0  0  0  0  0  0  0  0
  -16.2084  -17.8251    8.4436 C   0  0  0  0  0  0  0  0  0  0  0  0
  -15.0641  -18.4874    8.8643 C   0  0  0  0  0  0  0  0  0  0  0  0
  -16.0865  -16.8269    7.3849 C   0  0  0  0  0  0  0  0  0  0  0  0
  -13.8811  -18.1750    8.3473 C   0  0  0  0  0  0  0  0  0  0  0  0
  -15.2645  -19.6026   10.0371 C   0  0  0  0  0  0  0  0  0  0  0  0
  -13.7781  -17.1892    7.4397 C   0  0  0  0  0  0  0  0  0  0  0  0
  -14.9189  -16.4966    6.9247 C   0  0  0  0  0  0  0  0  0  0  0  0
  -17.2289  -16.1031    6.9022 C   0  0  0  0  0  0  0  0  0  0  0  0
  -15.2878  -20.9275    9.2566 C   0  0  0  0  0  0  0  0  0  0  0  0
  -14.2142  -19.5150   11.0490 C   0  0  0  0  0  0  0  0  0  0  0  0
  -17.2785  -14.6998    7.4274 C   0  0  0  0  0  0  0  0  0  0  0  0
  -17.3673  -16.1320    5.3963 C   0  0  0  0  0  0  0  0  0  0  0  0
  1  2  1  0  0  0  0
  2  3  1  0  0  0  0
  2  4  1  0  0  0  0
  3  5  1  0  0  0  0
  3  6  1  0  0  0  0
  4  8  1  0  0  0  0
  4  9  1  0  0  0  0
  5  7  1  0  0  0  0
  6 10  1  0  0  0  0
  6 11  1  0  0  0  0
  7  8  1  0  0  0  0
  9 12  1  0  0  0  0
  9 13  1  0  0  0  0
M  END
>  <Score>
0.280185

>  <Energy>
-7.554434

>  <Confidence>
0.719815

>  <Binding_Affinity>
-8.896308

>  <IC50_nM>
300.8

$$$$
