ml_pose_19
  PandaDock generated structure

 13 13  0  0  0  0  0  0  0  0999 V2000
  -13.8091  -17.9848    7.6417 O   0  0  0  0  0  0  0  0  0  0  0  0
  -15.0646  -17.8235    8.0286 C   0  0  0  0  0  0  0  0  0  0  0  0
  -15.6946  -16.5450    8.2805 C   0  0  0  0  0  0  0  0  0  0  0  0
  -15.8784  -18.8637    8.2006 C   0  0  0  0  0  0  0  0  0  0  0  0
  -16.9627  -16.3248    8.6372 C   0  0  0  0  0  0  0  0  0  0  0  0
  -14.7732  -15.2734    8.0380 C   0  0  0  0  0  0  0  0  0  0  0  0
  -17.8484  -17.4426    8.7108 C   0  0  0  0  0  0  0  0  0  0  0  0
  -17.2381  -18.6385    8.5015 C   0  0  0  0  0  0  0  0  0  0  0  0
  -15.4273  -20.2478    8.0626 C   0  0  0  0  0  0  0  0  0  0  0  0
  -15.0299  -14.6493    6.6331 C   0  0  0  0  0  0  0  0  0  0  0  0
  -15.0024  -14.2979    9.0272 C   0  0  0  0  0  0  0  0  0  0  0  0
  -15.1950  -20.9622    9.3814 C   0  0  0  0  0  0  0  0  0  0  0  0
  -16.1764  -21.0466    7.1967 C   0  0  0  0  0  0  0  0  0  0  0  0
  1  2  1  0  0  0  0
  2  3  1  0  0  0  0
  2  4  1  0  0  0  0
  3  5  1  0  0  0  0
  3  6  1  0  0  0  0
  4  8  1  0  0  0  0
  4  9  1  0  0  0  0
  5  7  1  0  0  0  0
  6 10  1  0  0  0  0
  6 11  1  0  0  0  0
  7  8  1  0  0  0  0
  9 12  1  0  0  0  0
  9 13  1  0  0  0  0
M  END
>  <Score>
0.309239

>  <Energy>
-5.834152

>  <Confidence>
0.690761

>  <Binding_Affinity>
-8.315216

>  <IC50_nM>
802.2

$$$$
