ml_pose_1
  PandaDock generated structure

 13 13  0  0  0  0  0  0  0  0999 V2000
  -17.0287  -16.2299    8.4368 O   0  0  0  0  0  0  0  0  0  0  0  0
  -16.1904  -17.3290    8.2647 C   0  0  0  0  0  0  0  0  0  0  0  0
  -16.4601  -18.5978    8.4385 C   0  0  0  0  0  0  0  0  0  0  0  0
  -14.7318  -16.9827    8.0250 C   0  0  0  0  0  0  0  0  0  0  0  0
  -15.4555  -19.5095    8.1330 C   0  0  0  0  0  0  0  0  0  0  0  0
  -17.9254  -19.0348    8.6146 C   0  0  0  0  0  0  0  0  0  0  0  0
  -14.1488  -19.3023    7.8998 C   0  0  0  0  0  0  0  0  0  0  0  0
  -13.7671  -17.9133    7.9041 C   0  0  0  0  0  0  0  0  0  0  0  0
  -14.4185  -15.4633    7.8912 C   0  0  0  0  0  0  0  0  0  0  0  0
  -18.5254  -19.3877    7.2918 C   0  0  0  0  0  0  0  0  0  0  0  0
  -18.0482  -20.2306    9.6152 C   0  0  0  0  0  0  0  0  0  0  0  0
  -13.7125  -14.9885    9.1821 C   0  0  0  0  0  0  0  0  0  0  0  0
  -13.6876  -15.1306    6.6430 C   0  0  0  0  0  0  0  0  0  0  0  0
  1  2  1  0  0  0  0
  2  3  1  0  0  0  0
  2  4  1  0  0  0  0
  3  5  1  0  0  0  0
  3  6  1  0  0  0  0
  4  8  1  0  0  0  0
  4  9  1  0  0  0  0
  5  7  1  0  0  0  0
  6 10  1  0  0  0  0
  6 11  1  0  0  0  0
  7  8  1  0  0  0  0
  9 12  1  0  0  0  0
  9 13  1  0  0  0  0
M  END
>  <Score>
0.151130

>  <Energy>
-6.874666

>  <Confidence>
0.848870

>  <Binding_Affinity>
-11.477407

>  <IC50_nM>
3.9

$$$$
