ml_pose_22
  PandaDock generated structure

 13 13  0  0  0  0  0  0  0  0999 V2000
  -16.9485  -19.1882    7.7481 O   0  0  0  0  0  0  0  0  0  0  0  0
  -15.9883  -18.2119    8.0640 C   0  0  0  0  0  0  0  0  0  0  0  0
  -14.8178  -18.2757    7.7382 C   0  0  0  0  0  0  0  0  0  0  0  0
  -16.5241  -16.9648    8.6824 C   0  0  0  0  0  0  0  0  0  0  0  0
  -13.8827  -17.2538    8.0701 C   0  0  0  0  0  0  0  0  0  0  0  0
  -14.2516  -19.5410    7.2288 C   0  0  0  0  0  0  0  0  0  0  0  0
  -14.3714  -16.0614    8.5474 C   0  0  0  0  0  0  0  0  0  0  0  0
  -15.6442  -15.9699    8.8994 C   0  0  0  0  0  0  0  0  0  0  0  0
  -18.1050  -16.8786    8.9960 C   0  0  0  0  0  0  0  0  0  0  0  0
  -14.0171  -19.4762    5.6345 C   0  0  0  0  0  0  0  0  0  0  0  0
  -12.8298  -19.9549    7.8513 C   0  0  0  0  0  0  0  0  0  0  0  0
  -18.2299  -16.7832   10.5000 C   0  0  0  0  0  0  0  0  0  0  0  0
  -18.4896  -15.5402    8.3800 C   0  0  0  0  0  0  0  0  0  0  0  0
  1  2  1  0  0  0  0
  2  3  1  0  0  0  0
  2  4  1  0  0  0  0
  3  5  1  0  0  0  0
  3  6  1  0  0  0  0
  4  8  1  0  0  0  0
  4  9  1  0  0  0  0
  5  7  1  0  0  0  0
  6 10  1  0  0  0  0
  6 11  1  0  0  0  0
  7  8  1  0  0  0  0
  9 12  1  0  0  0  0
  9 13  1  0  0  0  0
M  END
>  <Score>
0.351856

>  <Energy>
-8.757932

>  <Confidence>
0.648144

>  <Binding_Affinity>
-3.603443

>  <IC50_nM>
2282373.3

$$$$
