ml_pose_23
  PandaDock generated structure

 13 13  0  0  0  0  0  0  0  0999 V2000
  -15.4134  -19.4207    8.9571 O   0  0  0  0  0  0  0  0  0  0  0  0
  -15.5353  -18.2396    8.5161 C   0  0  0  0  0  0  0  0  0  0  0  0
  -15.1547  -17.9224    7.1255 C   0  0  0  0  0  0  0  0  0  0  0  0
  -16.2683  -17.1603    9.0591 C   0  0  0  0  0  0  0  0  0  0  0  0
  -15.3547  -16.7955    6.6484 C   0  0  0  0  0  0  0  0  0  0  0  0
  -14.3822  -19.1930    6.3506 C   0  0  0  0  0  0  0  0  0  0  0  0
  -15.9580  -15.6978    7.2377 C   0  0  0  0  0  0  0  0  0  0  0  0
  -16.5180  -15.9423    8.5821 C   0  0  0  0  0  0  0  0  0  0  0  0
  -16.7507  -17.4877   10.5868 C   0  0  0  0  0  0  0  0  0  0  0  0
  -15.4201  -19.9184    5.4394 C   0  0  0  0  0  0  0  0  0  0  0  0
  -13.2631  -18.6295    5.6947 C   0  0  0  0  0  0  0  0  0  0  0  0
  -15.8611  -16.6711   11.5666 C   0  0  0  0  0  0  0  0  0  0  0  0
  -18.2204  -17.0219   10.5759 C   0  0  0  0  0  0  0  0  0  0  0  0
  1  2  1  0  0  0  0
  2  3  1  0  0  0  0
  2  4  1  0  0  0  0
  3  5  1  0  0  0  0
  3  6  1  0  0  0  0
  4  8  1  0  0  0  0
  4  9  1  0  0  0  0
  5  7  1  0  0  0  0
  6 10  1  0  0  0  0
  6 11  1  0  0  0  0
  7  8  1  0  0  0  0
  9 12  1  0  0  0  0
  9 13  1  0  0  0  0
M  END
>  <Score>
0.263418

>  <Energy>
-5.617790

>  <Confidence>
0.736582

>  <Binding_Affinity>
-3.000000

>  <IC50_nM>
6320605.5

$$$$
