ml_pose_16
  PandaDock generated structure

 13 13  0  0  0  0  0  0  0  0999 V2000
  -16.3068  -19.5069    8.9625 O   0  0  0  0  0  0  0  0  0  0  0  0
  -15.8817  -18.2932    8.3821 C   0  0  0  0  0  0  0  0  0  0  0  0
  -16.8484  -17.3896    7.8255 C   0  0  0  0  0  0  0  0  0  0  0  0
  -14.5005  -17.7409    8.4466 C   0  0  0  0  0  0  0  0  0  0  0  0
  -16.4249  -16.1406    7.2672 C   0  0  0  0  0  0  0  0  0  0  0  0
  -18.2296  -17.8230    7.6545 C   0  0  0  0  0  0  0  0  0  0  0  0
  -15.1128  -15.8184    7.3707 C   0  0  0  0  0  0  0  0  0  0  0  0
  -14.1490  -16.6469    7.9810 C   0  0  0  0  0  0  0  0  0  0  0  0
  -13.5008  -18.6875    9.1058 C   0  0  0  0  0  0  0  0  0  0  0  0
  -19.1091  -17.1875    8.8889 C   0  0  0  0  0  0  0  0  0  0  0  0
  -18.9024  -17.5682    6.3228 C   0  0  0  0  0  0  0  0  0  0  0  0
  -12.5270  -19.3930    7.9864 C   0  0  0  0  0  0  0  0  0  0  0  0
  -12.6071  -17.9043   10.1460 C   0  0  0  0  0  0  0  0  0  0  0  0
  1  2  1  0  0  0  0
  2  3  1  0  0  0  0
  2  4  1  0  0  0  0
  3  5  1  0  0  0  0
  3  6  1  0  0  0  0
  4  8  1  0  0  0  0
  4  9  1  0  0  0  0
  5  7  1  0  0  0  0
  6 10  1  0  0  0  0
  6 11  1  0  0  0  0
  7  8  1  0  0  0  0
  9 12  1  0  0  0  0
  9 13  1  0  0  0  0
M  END
>  <Score>
0.102418

>  <Energy>
-8.063921

>  <Confidence>
0.897582

>  <Binding_Affinity>
-12.137152

>  <IC50_nM>
1.3

$$$$
