ml_pose_1
  PandaDock generated structure

 13 13  0  0  0  0  0  0  0  0999 V2000
  -14.2480  -16.2653    7.9961 O   0  0  0  0  0  0  0  0  0  0  0  0
  -15.2363  -17.3112    8.1212 C   0  0  0  0  0  0  0  0  0  0  0  0
  -16.5193  -16.9332    8.2452 C   0  0  0  0  0  0  0  0  0  0  0  0
  -14.8950  -18.5574    8.0994 C   0  0  0  0  0  0  0  0  0  0  0  0
  -17.6396  -17.8597    8.4362 C   0  0  0  0  0  0  0  0  0  0  0  0
  -16.9162  -15.4660    8.1926 C   0  0  0  0  0  0  0  0  0  0  0  0
  -17.3436  -19.1889    8.4911 C   0  0  0  0  0  0  0  0  0  0  0  0
  -15.9328  -19.5269    8.3249 C   0  0  0  0  0  0  0  0  0  0  0  0
  -13.5682  -19.0818    7.9451 C   0  0  0  0  0  0  0  0  0  0  0  0
  -17.5135  -14.9587    6.9440 C   0  0  0  0  0  0  0  0  0  0  0  0
  -17.9461  -15.1205    9.3535 C   0  0  0  0  0  0  0  0  0  0  0  0
  -12.8896  -19.6344    9.3072 C   0  0  0  0  0  0  0  0  0  0  0  0
  -13.4518  -20.1959    6.8834 C   0  0  0  0  0  0  0  0  0  0  0  0
  1  2  1  0  0  0  0
  2  3  1  0  0  0  0
  2  4  1  0  0  0  0
  3  5  1  0  0  0  0
  3  6  1  0  0  0  0
  4  8  1  0  0  0  0
  4  9  1  0  0  0  0
  5  7  1  0  0  0  0
  6 10  1  0  0  0  0
  6 11  1  0  0  0  0
  7  8  1  0  0  0  0
  9 12  1  0  0  0  0
  9 13  1  0  0  0  0
M  END
>  <Score>
0.233055

>  <Energy>
-6.668965

>  <Confidence>
0.766945

>  <Binding_Affinity>
-3.066848

>  <IC50_nM>
5646171.0

$$$$
