etomR
 OpenBabel03302508113D

 34 35  0  0  0  0  0  0  0  0999 V2000
    2.5135   -2.0946    2.0405 C   0  0  0  0  0  0  0  0  0  0  0  0
    3.2975   -1.1350    2.6817 C   0  0  0  0  0  0  0  0  0  0  0  0
    4.6562   -1.0315    2.4120 C   0  0  0  0  0  0  0  0  0  0  0  0
    5.2503   -1.8848    1.4935 C   0  0  0  0  0  0  0  0  0  0  0  0
    4.4809   -2.8389    0.8437 C   0  0  0  0  0  0  0  0  0  0  0  0
    3.1225   -2.9397    1.1156 C   0  0  0  0  0  0  0  0  0  0  0  0
    1.0274   -2.2197    2.3057 C   0  0  1  0  0  0  0  0  0  0  0  0
    2.8565   -0.4516    3.3915 H   0  0  0  0  0  0  0  0  0  0  0  0
    5.2504   -0.2835    2.9171 H   0  0  0  0  0  0  0  0  0  0  0  0
    6.3078   -1.8046    1.2831 H   0  0  0  0  0  0  0  0  0  0  0  0
    4.9380   -3.5030    0.1240 H   0  0  0  0  0  0  0  0  0  0  0  0
    2.5326   -3.6819    0.5969 H   0  0  0  0  0  0  0  0  0  0  0  0
    0.6844   -1.9548    3.7834 C   0  0  0  0  0  0  0  0  0  0  0  0
   -0.3424   -2.2274    4.0193 H   0  0  0  0  0  0  0  0  0  0  0  0
    0.7952   -0.9024    4.0423 H   0  0  0  0  0  0  0  0  0  0  0  0
    1.3271   -2.5375    4.4435 H   0  0  0  0  0  0  0  0  0  0  0  0
    0.2232   -1.3489    1.4145 N   0  0  0  0  0  0  0  0  0  0  0  0
   -1.1216   -1.4064    1.1674 C   0  0  0  0  0  0  0  0  0  0  0  0
    0.6699   -0.3168    0.6622 C   0  0  0  0  0  0  0  0  0  0  0  0
   -1.4460   -0.3379    0.3098 C   0  0  0  0  0  0  0  0  0  0  0  0
   -2.0214   -2.3450    1.6551 C   0  0  0  0  0  0  0  0  0  0  0  0
   -3.2805   -2.1301    1.2976 O   0  0  0  0  0  0  0  0  0  0  0  0
   -4.2734   -3.0484    1.7501 C   0  0  0  0  0  0  0  0  0  0  0  0
   -1.6648   -3.2918    2.3477 O   0  0  0  0  0  0  0  0  0  0  0  0
    0.7653   -3.2531    2.0757 H   0  0  0  0  0  0  0  0  0  0  0  0
   -5.6346   -2.6298    1.1916 C   0  0  0  0  0  0  0  0  0  0  0  0
   -4.0141   -4.0549    1.4149 H   0  0  0  0  0  0  0  0  0  0  0  0
   -0.3114    0.3189    0.0077 N   0  0  0  0  0  0  0  0  0  0  0  0
    1.7018   -0.0049    0.5814 H   0  0  0  0  0  0  0  0  0  0  0  0
   -2.4321   -0.0854   -0.0541 H   0  0  0  0  0  0  0  0  0  0  0  0
   -4.2903   -3.0481    2.8419 H   0  0  0  0  0  0  0  0  0  0  0  0
   -6.4179   -3.3120    1.5215 H   0  0  0  0  0  0  0  0  0  0  0  0
   -5.8989   -1.6260    1.5246 H   0  0  0  0  0  0  0  0  0  0  0  0
   -5.6239   -2.6299    0.1016 H   0  0  0  0  0  0  0  0  0  0  0  0
  1  2  2  0  0  0  0
  1  7  1  0  0  0  0
  2  3  1  0  0  0  0
  2  8  1  0  0  0  0
  3  4  2  0  0  0  0
  3  9  1  0  0  0  0
  4  5  1  0  0  0  0
  4 10  1  0  0  0  0
  5  6  2  0  0  0  0
  5 11  1  0  0  0  0
  6  1  1  0  0  0  0
  6 12  1  0  0  0  0
  7 13  1  0  0  0  0
  7 17  1  0  0  0  0
  7 25  1  6  0  0  0
 13 14  1  0  0  0  0
 13 15  1  0  0  0  0
 13 16  1  0  0  0  0
 17 18  1  0  0  0  0
 17 19  1  0  0  0  0
 18 20  2  0  0  0  0
 18 21  1  0  0  0  0
 19 28  2  0  0  0  0
 19 29  1  0  0  0  0
 20 28  1  0  0  0  0
 20 30  1  0  0  0  0
 21 22  1  0  0  0  0
 21 24  2  0  0  0  0
 22 23  1  0  0  0  0
 23 26  1  0  0  0  0
 23 27  1  0  0  0  0
 23 31  1  0  0  0  0
 26 32  1  0  0  0  0
 26 33  1  0  0  0  0
 26 34  1  0  0  0  0
M  END
>  <Name>
etomR

>  <GABAR EC50>
1.83

>  <Hypnotic ED50>
0.47

>  <NumberOfStereoisomers>
1

>  <NumberOfTautomers>
1

>  <Octanol Buffer Partition Coeff>
731

>  <PartialChargeMethod>
CFF

>  <StereoisomerIndex>
1

>  <TautomerIndex>
1

>  <UseResidueTemplateCharge>
True

>  <Forcefield>
CHARMm

>  <ForcefieldBase>
CHARMm

>  <ForcefieldFFML>
<?xml version="1.0" encoding="UTF-8"?>
<!DOCTYPE ffml SYSTEM "Ffml.dtd">
<ffml version="1.0">
<forcefield name="CHARMm" derivedFrom="CHARMm" base="CHARMm">
<atomTypes>
</atomTypes>
<parameters>
</parameters>
</forcefield>
</ffml>

>  <Initial Potential Energy>
15.2922

>  <Initial RMS Gradient>
13.5643

>  <Minimization Criteria>
CONJUG> Minimization exiting with gradient tolerance ( 0.0010000) satisfied.

>  <CHARMm Energy>
8.23468

>  <Improper Energy>
0.01551

>  <Hydrogen Bond Energy>
0

>  <Angle Energy>
1.83744

>  <Dihedral Energy>
2.28209

>  <Electrostatic Energy>
5.01066

>  <Solvation Free Energy>
0

>  <Potential Energy>
8.23468

>  <Van der Waals Energy>
-1.53078

>  <RMS Gradient>
0.00097

>  <Urey-Bradley Energy>
0

>  <Bond Energy>
0.61976

>  <REMARK99>
REMARK  99  MacroMolecule created from Mol2 file
REMARK  99  etomR
REMARK  99  PROTEIN
REMARK  99  USER_CHARGES
REMARK  99
REMARK  99

>  <Control>
1

$$$$
