ml_pose_10
  PandaDock generated structure

 13 13  0  0  0  0  0  0  0  0999 V2000
  -13.8963  -18.1603    7.4620 O   0  0  0  0  0  0  0  0  0  0  0  0
  -15.1125  -17.7588    8.0219 C   0  0  0  0  0  0  0  0  0  0  0  0
  -15.9274  -16.9721    7.1750 C   0  0  0  0  0  0  0  0  0  0  0  0
  -15.6708  -18.2906    9.1796 C   0  0  0  0  0  0  0  0  0  0  0  0
  -17.1973  -16.6847    7.6905 C   0  0  0  0  0  0  0  0  0  0  0  0
  -15.5060  -16.2774    6.0979 C   0  0  0  0  0  0  0  0  0  0  0  0
  -17.7316  -17.1505    8.8866 C   0  0  0  0  0  0  0  0  0  0  0  0
  -16.9085  -18.0364    9.7712 C   0  0  0  0  0  0  0  0  0  0  0  0
  -14.6841  -19.4108    9.9160 C   0  0  0  0  0  0  0  0  0  0  0  0
  -16.0318  -17.1185    4.7747 C   0  0  0  0  0  0  0  0  0  0  0  0
  -15.8551  -14.8046    5.8800 C   0  0  0  0  0  0  0  0  0  0  0  0
  -14.1158  -18.8306   11.2275 C   0  0  0  0  0  0  0  0  0  0  0  0
  -15.4628  -20.6047   10.2571 C   0  0  0  0  0  0  0  0  0  0  0  0
  1  2  1  0  0  0  0
  2  3  1  0  0  0  0
  2  4  1  0  0  0  0
  3  5  1  0  0  0  0
  3  6  1  0  0  0  0
  4  8  1  0  0  0  0
  4  9  1  0  0  0  0
  5  7  1  0  0  0  0
  6 10  1  0  0  0  0
  6 11  1  0  0  0  0
  7  8  1  0  0  0  0
  9 12  1  0  0  0  0
  9 13  1  0  0  0  0
M  END
>  <Score>
0.291268

>  <Energy>
-6.363352

>  <Confidence>
0.708732

>  <Binding_Affinity>
-3.063938

>  <IC50_nM>
5673967.8

$$$$
