ml_pose_4
  PandaDock generated structure

 13 13  0  0  0  0  0  0  0  0999 V2000
  -16.2428  -19.0105    6.6849 O   0  0  0  0  0  0  0  0  0  0  0  0
  -15.8536  -18.0693    7.7978 C   0  0  0  0  0  0  0  0  0  0  0  0
  -14.7397  -18.3543    8.4962 C   0  0  0  0  0  0  0  0  0  0  0  0
  -16.6672  -16.9739    7.9770 C   0  0  0  0  0  0  0  0  0  0  0  0
  -14.5074  -17.4734    9.4941 C   0  0  0  0  0  0  0  0  0  0  0  0
  -13.9251  -19.5345    8.2221 C   0  0  0  0  0  0  0  0  0  0  0  0
  -15.1234  -16.3150    9.7763 C   0  0  0  0  0  0  0  0  0  0  0  0
  -16.2740  -16.0354    9.0500 C   0  0  0  0  0  0  0  0  0  0  0  0
  -17.8019  -16.6932    7.1611 C   0  0  0  0  0  0  0  0  0  0  0  0
  -12.5927  -19.3136    7.6202 C   0  0  0  0  0  0  0  0  0  0  0  0
  -13.5066  -20.2856    9.5819 C   0  0  0  0  0  0  0  0  0  0  0  0
  -19.1363  -16.8997    7.8509 C   0  0  0  0  0  0  0  0  0  0  0  0
  -17.7292  -15.1416    6.6278 C   0  0  0  0  0  0  0  0  0  0  0  0
  1  2  1  0  0  0  0
  2  3  1  0  0  0  0
  2  4  1  0  0  0  0
  3  5  1  0  0  0  0
  3  6  1  0  0  0  0
  4  8  1  0  0  0  0
  4  9  1  0  0  0  0
  5  7  1  0  0  0  0
  6 10  1  0  0  0  0
  6 11  1  0  0  0  0
  7  8  1  0  0  0  0
  9 12  1  0  0  0  0
  9 13  1  0  0  0  0
M  END
>  <Score>
0.224199

>  <Energy>
-9.014399

>  <Confidence>
0.775801

>  <Binding_Affinity>
-3.527079

>  <IC50_nM>
2596374.6

$$$$
