ml_pose_2
  PandaDock generated structure

 13 13  0  0  0  0  0  0  0  0999 V2000
  -15.6907  -16.2615    6.8021 O   0  0  0  0  0  0  0  0  0  0  0  0
  -15.6210  -17.2003    7.8369 C   0  0  0  0  0  0  0  0  0  0  0  0
  -16.4712  -17.1704    8.9399 C   0  0  0  0  0  0  0  0  0  0  0  0
  -14.9595  -18.4407    7.6434 C   0  0  0  0  0  0  0  0  0  0  0  0
  -16.4905  -18.2057    9.8430 C   0  0  0  0  0  0  0  0  0  0  0  0
  -17.3343  -15.9134    9.1065 C   0  0  0  0  0  0  0  0  0  0  0  0
  -15.6192  -19.3061    9.6573 C   0  0  0  0  0  0  0  0  0  0  0  0
  -14.9718  -19.3692    8.4855 C   0  0  0  0  0  0  0  0  0  0  0  0
  -13.9777  -18.4774    6.2711 C   0  0  0  0  0  0  0  0  0  0  0  0
  -18.8169  -16.1819    8.8065 C   0  0  0  0  0  0  0  0  0  0  0  0
  -17.3071  -15.4231   10.6235 C   0  0  0  0  0  0  0  0  0  0  0  0
  -12.5608  -18.2793    6.6828 C   0  0  0  0  0  0  0  0  0  0  0  0
  -14.2793  -19.8710    5.6415 C   0  0  0  0  0  0  0  0  0  0  0  0
  1  2  1  0  0  0  0
  2  3  1  0  0  0  0
  2  4  1  0  0  0  0
  3  5  1  0  0  0  0
  3  6  1  0  0  0  0
  4  8  1  0  0  0  0
  4  9  1  0  0  0  0
  5  7  1  0  0  0  0
  6 10  1  0  0  0  0
  6 11  1  0  0  0  0
  7  8  1  0  0  0  0
  9 12  1  0  0  0  0
  9 13  1  0  0  0  0
M  END
>  <Score>
0.153915

>  <Energy>
-4.940126

>  <Confidence>
0.846085

>  <Binding_Affinity>
-5.641748

>  <IC50_nM>
73138.4

$$$$
