ml_pose_25
  PandaDock generated structure

 13 13  0  0  0  0  0  0  0  0999 V2000
  -16.3083  -17.7112    6.3057 O   0  0  0  0  0  0  0  0  0  0  0  0
  -15.9141  -17.6841    7.6305 C   0  0  0  0  0  0  0  0  0  0  0  0
  -16.7144  -17.4124    8.5534 C   0  0  0  0  0  0  0  0  0  0  0  0
  -14.5275  -17.9911    7.9013 C   0  0  0  0  0  0  0  0  0  0  0  0
  -16.3483  -17.2892    9.9553 C   0  0  0  0  0  0  0  0  0  0  0  0
  -18.2067  -17.0880    8.2492 C   0  0  0  0  0  0  0  0  0  0  0  0
  -14.9903  -17.5926   10.3868 C   0  0  0  0  0  0  0  0  0  0  0  0
  -14.1136  -17.9099    9.2903 C   0  0  0  0  0  0  0  0  0  0  0  0
  -13.5772  -18.3422    6.7917 C   0  0  0  0  0  0  0  0  0  0  0  0
  -19.1197  -18.2797    8.5969 C   0  0  0  0  0  0  0  0  0  0  0  0
  -18.7688  -15.8738    9.0428 C   0  0  0  0  0  0  0  0  0  0  0  0
  -12.5977  -17.2024    6.5191 C   0  0  0  0  0  0  0  0  0  0  0  0
  -12.9135  -19.7234    7.1169 C   0  0  0  0  0  0  0  0  0  0  0  0
  1  2  1  0  0  0  0
  2  3  1  0  0  0  0
  2  4  1  0  0  0  0
  3  5  1  0  0  0  0
  3  6  1  0  0  0  0
  4  8  1  0  0  0  0
  4  9  1  0  0  0  0
  5  7  1  0  0  0  0
  6 10  1  0  0  0  0
  6 11  1  0  0  0  0
  7  8  1  0  0  0  0
  9 12  1  0  0  0  0
  9 13  1  0  0  0  0
M  END
>  <Score>
0.151928

>  <Energy>
-6.444561

>  <Confidence>
0.848072

>  <Binding_Affinity>
-6.169135

>  <IC50_nM>
30028.1

$$$$
