ml_pose_16
  PandaDock generated structure

 13 13  0  0  0  0  0  0  0  0999 V2000
  -15.9027  -17.4327   10.0362 O   0  0  0  0  0  0  0  0  0  0  0  0
  -15.8281  -17.5668    8.8631 C   0  0  0  0  0  0  0  0  0  0  0  0
  -14.6775  -16.9881    8.0483 C   0  0  0  0  0  0  0  0  0  0  0  0
  -16.5899  -18.3622    8.0746 C   0  0  0  0  0  0  0  0  0  0  0  0
  -14.5519  -17.2924    6.7328 C   0  0  0  0  0  0  0  0  0  0  0  0
  -13.6259  -16.2072    8.8399 C   0  0  0  0  0  0  0  0  0  0  0  0
  -15.5641  -17.9368    6.1100 C   0  0  0  0  0  0  0  0  0  0  0  0
  -16.5343  -18.4927    6.6668 C   0  0  0  0  0  0  0  0  0  0  0  0
  -17.8375  -19.0338    8.8665 C   0  0  0  0  0  0  0  0  0  0  0  0
  -12.4459  -17.0657    9.0547 C   0  0  0  0  0  0  0  0  0  0  0  0
  -13.3555  -14.9641    7.9650 C   0  0  0  0  0  0  0  0  0  0  0  0
  -19.1874  -18.2149    8.5942 C   0  0  0  0  0  0  0  0  0  0  0  0
  -17.9993  -20.5425    8.4879 C   0  0  0  0  0  0  0  0  0  0  0  0
  1  2  1  0  0  0  0
  2  3  1  0  0  0  0
  2  4  1  0  0  0  0
  3  5  1  0  0  0  0
  3  6  1  0  0  0  0
  4  8  1  0  0  0  0
  4  9  1  0  0  0  0
  5  7  1  0  0  0  0
  6 10  1  0  0  0  0
  6 11  1  0  0  0  0
  7  8  1  0  0  0  0
  9 12  1  0  0  0  0
  9 13  1  0  0  0  0
M  END
>  <Score>
0.291026

>  <Energy>
-9.339718

>  <Confidence>
0.708974

>  <Binding_Affinity>
-3.658970

>  <IC50_nM>
2078168.4

$$$$
