ml_pose_17
  PandaDock generated structure

 13 13  0  0  0  0  0  0  0  0999 V2000
  -14.5548  -16.0700    8.2843 O   0  0  0  0  0  0  0  0  0  0  0  0
  -15.3370  -17.1922    8.2532 C   0  0  0  0  0  0  0  0  0  0  0  0
  -16.6932  -17.1302    8.6193 C   0  0  0  0  0  0  0  0  0  0  0  0
  -14.9005  -18.3869    7.7463 C   0  0  0  0  0  0  0  0  0  0  0  0
  -17.4311  -18.3597    8.5832 C   0  0  0  0  0  0  0  0  0  0  0  0
  -17.2442  -15.8323    9.1216 C   0  0  0  0  0  0  0  0  0  0  0  0
  -17.0352  -19.5362    8.0703 C   0  0  0  0  0  0  0  0  0  0  0  0
  -15.5830  -19.5670    7.6535 C   0  0  0  0  0  0  0  0  0  0  0  0
  -13.3631  -18.4739    7.3783 C   0  0  0  0  0  0  0  0  0  0  0  0
  -18.0597  -15.1246    8.1361 C   0  0  0  0  0  0  0  0  0  0  0  0
  -18.0670  -16.1820   10.3720 C   0  0  0  0  0  0  0  0  0  0  0  0
  -12.5276  -19.1840    8.2445 C   0  0  0  0  0  0  0  0  0  0  0  0
  -13.3034  -19.0610    5.8774 C   0  0  0  0  0  0  0  0  0  0  0  0
  1  2  1  0  0  0  0
  2  3  1  0  0  0  0
  2  4  1  0  0  0  0
  3  5  1  0  0  0  0
  3  6  1  0  0  0  0
  4  8  1  0  0  0  0
  4  9  1  0  0  0  0
  5  7  1  0  0  0  0
  6 10  1  0  0  0  0
  6 11  1  0  0  0  0
  7  8  1  0  0  0  0
  9 12  1  0  0  0  0
  9 13  1  0  0  0  0
M  END
>  <Score>
0.218726

>  <Energy>
-5.513370

>  <Confidence>
0.781274

>  <Binding_Affinity>
-3.000000

>  <IC50_nM>
6320605.5

$$$$
