ga_pose_4529038192
  PandaDock generated structure

 20 12  0  0  0  0  0  0  0  0999 V2000
  -30.8671   -7.8327   -2.3265 O   0  0  0  0  0  0  0  0  0  0  0  0
  -30.3119   -5.6770   -6.5528 C   0  0  0  0  0  0  0  0  0  0  0  0
  -27.5557   -8.8485   -4.3342 C   0  0  0  0  0  0  0  0  0  0  0  0
  -30.3300   -4.1257   -5.1251 C   0  0  0  0  0  0  0  0  0  0  0  0
  -25.1430   -5.7734   -7.4980 C   0  0  0  0  0  0  0  0  0  0  0  0
  -30.7558   -5.0505   -5.9112 C   0  0  0  0  0  0  0  0  0  0  0  0
  -27.3908   -6.7475   -5.4933 C   0  0  0  0  0  0  0  0  0  0  0  0
  -30.5588   -6.8407   -5.8673 C   0  0  0  0  0  0  0  0  0  0  0  0
  -25.2103   -2.1393   -5.5014 C   0  0  0  0  0  0  0  0  0  0  0  0
  -29.5687   -6.8604   -7.1793 C   0  0  0  0  0  0  0  0  0  0  0  0
  -28.8535   -4.1216   -7.7761 C   0  0  0  0  0  0  0  0  0  0  0  0
  -28.9987   -3.5544   -5.5477 C   0  0  0  0  0  0  0  0  0  0  0  0
  -29.7363   -4.0936   -4.7674 C   0  0  0  0  0  0  0  0  0  0  0  0
  -26.7566   -5.9484   -6.1711 C   0  0  0  0  0  0  0  0  0  0  0  0
  -26.7721   -6.3413   -8.7850 C   0  0  0  0  0  0  0  0  0  0  0  0
  -29.8534   -1.5373   -3.5026 C   0  0  0  0  0  0  0  0  0  0  0  0
  -28.0192   -5.5689   -4.5671 C   0  0  0  0  0  0  0  0  0  0  0  0
  -29.5089   -1.4224   -6.3869 C   0  0  0  0  0  0  0  0  0  0  0  0
  -27.1487   -4.1126   -6.3817 C   0  0  0  0  0  0  0  0  0  0  0  0
  -26.1628   -4.3378   -7.2182 C   0  0  0  0  0  0  0  0  0  0  0  0
  2  6  1  0  0  0  0
  2  8  1  0  0  0  0
  2 10  1  0  0  0  0
  4  6  1  0  0  0  0
  4 12  1  0  0  0  0
  4 13  1  0  0  0  0
  5 20  1  0  0  0  0
  7 14  1  0  0  0  0
  7 17  1  0  0  0  0
  8 10  1  0  0  0  0
 12 13  1  0  0  0  0
 19 20  1  0  0  0  0
M  END
>  <Score>
-31.535596

>  <Energy>
0.000000

>  <Confidence>
0.000000

>  <Binding_Affinity>
-16.000000

>  <IC50_nM>
0.0

$$$$
