ga_pose_4529123952
  PandaDock generated structure

 20  7  0  0  0  0  0  0  0  0999 V2000
  -26.7859   -7.1187  -10.2098 O   0  0  0  0  0  0  0  0  0  0  0  0
  -28.9700   -7.3698   -4.4010 C   0  0  0  0  0  0  0  0  0  0  0  0
  -26.9573   -5.0511   -7.3394 C   0  0  0  0  0  0  0  0  0  0  0  0
  -30.2470   -5.0715   -5.1110 C   0  0  0  0  0  0  0  0  0  0  0  0
  -25.5448   -4.6895   -5.9491 C   0  0  0  0  0  0  0  0  0  0  0  0
  -27.1346   -5.9432   -8.3395 C   0  0  0  0  0  0  0  0  0  0  0  0
  -27.4292   -5.3606   -2.1831 C   0  0  0  0  0  0  0  0  0  0  0  0
  -31.4522   -2.3967   -5.3354 C   0  0  0  0  0  0  0  0  0  0  0  0
  -32.2510   -8.7218   -7.2611 C   0  0  0  0  0  0  0  0  0  0  0  0
  -26.5476   -6.9274   -5.4855 C   0  0  0  0  0  0  0  0  0  0  0  0
  -25.8447   -6.8903  -10.3962 C   0  0  0  0  0  0  0  0  0  0  0  0
  -25.0034   -6.6133   -5.5831 C   0  0  0  0  0  0  0  0  0  0  0  0
  -28.2790   -4.0004   -5.5954 C   0  0  0  0  0  0  0  0  0  0  0  0
  -26.4551   -2.0187   -8.0353 C   0  0  0  0  0  0  0  0  0  0  0  0
  -30.7469   -5.6535   -7.2436 C   0  0  0  0  0  0  0  0  0  0  0  0
  -25.9415   -5.1840   -7.8698 C   0  0  0  0  0  0  0  0  0  0  0  0
  -23.9964   -6.4649   -7.6876 C   0  0  0  0  0  0  0  0  0  0  0  0
  -29.5748   -9.3389   -6.2911 C   0  0  0  0  0  0  0  0  0  0  0  0
  -28.5738   -4.6296   -6.4709 C   0  0  0  0  0  0  0  0  0  0  0  0
  -27.5560   -2.9745   -8.7714 C   0  0  0  0  0  0  0  0  0  0  0  0
  1 11  1  0  0  0  0
  3  6  1  0  0  0  0
  3 16  1  0  0  0  0
  6 16  1  0  0  0  0
 10 12  1  0  0  0  0
 13 19  1  0  0  0  0
 14 20  1  0  0  0  0
M  END
>  <Score>
-31.535596

>  <Energy>
0.000000

>  <Confidence>
0.000000

>  <Binding_Affinity>
-16.000000

>  <IC50_nM>
0.0

$$$$
