ga_pose_4529150672
  PandaDock generated structure

 20  8  0  0  0  0  0  0  0  0999 V2000
  -27.7090   -7.6565   -2.3063 O   0  0  0  0  0  0  0  0  0  0  0  0
  -27.8910   -6.5937   -6.0559 C   0  0  0  0  0  0  0  0  0  0  0  0
  -28.4259   -4.0130   -4.7564 C   0  0  0  0  0  0  0  0  0  0  0  0
  -25.2870   -2.8141   -3.0988 C   0  0  0  0  0  0  0  0  0  0  0  0
  -32.3269   -7.0518  -10.0608 C   0  0  0  0  0  0  0  0  0  0  0  0
  -26.8054   -6.6833   -8.5147 C   0  0  0  0  0  0  0  0  0  0  0  0
  -28.5202   -3.7940   -7.3544 C   0  0  0  0  0  0  0  0  0  0  0  0
  -27.1961   -8.0628   -5.3254 C   0  0  0  0  0  0  0  0  0  0  0  0
  -27.2632   -4.2602   -6.2514 C   0  0  0  0  0  0  0  0  0  0  0  0
  -32.8975   -3.6764   -6.2897 C   0  0  0  0  0  0  0  0  0  0  0  0
  -29.6872   -2.6698   -5.1905 C   0  0  0  0  0  0  0  0  0  0  0  0
  -30.9910   -4.0288   -5.5468 C   0  0  0  0  0  0  0  0  0  0  0  0
  -26.0586   -0.5200   -5.0697 C   0  0  0  0  0  0  0  0  0  0  0  0
  -29.9470   -4.4868   -3.0959 C   0  0  0  0  0  0  0  0  0  0  0  0
  -26.9972   -3.4258   -7.7841 C   0  0  0  0  0  0  0  0  0  0  0  0
  -27.1630   -9.5653   -6.5626 C   0  0  0  0  0  0  0  0  0  0  0  0
  -29.6286   -4.3674   -8.3323 C   0  0  0  0  0  0  0  0  0  0  0  0
  -29.5829   -5.5036   -8.7456 C   0  0  0  0  0  0  0  0  0  0  0  0
  -28.4286   -6.4353   -8.1173 C   0  0  0  0  0  0  0  0  0  0  0  0
  -30.0145   -5.5245   -5.0404 C   0  0  0  0  0  0  0  0  0  0  0  0
  2  8  1  0  0  0  0
  6 19  1  0  0  0  0
  7  9  1  0  0  0  0
  7 15  1  0  0  0  0
  7 17  1  0  0  0  0
  9 15  1  0  0  0  0
 17 18  1  0  0  0  0
 18 19  1  0  0  0  0
M  END
>  <Score>
-31.535596

>  <Energy>
0.000000

>  <Confidence>
0.000000

>  <Binding_Affinity>
-16.000000

>  <IC50_nM>
0.0

$$$$
