ga_pose_4529035120
  PandaDock generated structure

 20 12  0  0  0  0  0  0  0  0999 V2000
  -28.2035  -10.1232   -3.7463 O   0  0  0  0  0  0  0  0  0  0  0  0
  -27.3689   -7.2803   -7.9094 C   0  0  0  0  0  0  0  0  0  0  0  0
  -25.8919   -7.1376   -8.0288 C   0  0  0  0  0  0  0  0  0  0  0  0
  -33.3884   -5.8980   -6.3076 C   0  0  0  0  0  0  0  0  0  0  0  0
  -27.1224   -2.9259   -8.6746 C   0  0  0  0  0  0  0  0  0  0  0  0
  -28.9922   -6.4407   -9.0556 C   0  0  0  0  0  0  0  0  0  0  0  0
  -30.1515   -3.9185   -6.8998 C   0  0  0  0  0  0  0  0  0  0  0  0
  -29.6420   -3.4948   -8.6744 C   0  0  0  0  0  0  0  0  0  0  0  0
  -30.5842   -4.3654   -7.1320 C   0  0  0  0  0  0  0  0  0  0  0  0
  -28.1936   -2.9514   -4.0989 C   0  0  0  0  0  0  0  0  0  0  0  0
  -28.7267   -4.4449   -5.5246 C   0  0  0  0  0  0  0  0  0  0  0  0
  -27.6727   -6.4359   -3.6916 C   0  0  0  0  0  0  0  0  0  0  0  0
  -26.5353   -3.0233   -7.0431 C   0  0  0  0  0  0  0  0  0  0  0  0
  -28.7751   -3.4039   -8.6059 C   0  0  0  0  0  0  0  0  0  0  0  0
  -28.1663   -2.3036   -6.2982 C   0  0  0  0  0  0  0  0  0  0  0  0
  -30.5303   -4.2275   -6.2088 C   0  0  0  0  0  0  0  0  0  0  0  0
  -27.8837   -6.9845   -5.1425 C   0  0  0  0  0  0  0  0  0  0  0  0
  -28.5259   -2.3039   -6.2330 C   0  0  0  0  0  0  0  0  0  0  0  0
  -25.7660   -3.9261   -6.8821 C   0  0  0  0  0  0  0  0  0  0  0  0
  -29.3730   -3.3370   -4.9241 C   0  0  0  0  0  0  0  0  0  0  0  0
  2  3  1  0  0  0  0
  5 13  1  0  0  0  0
  5 14  1  0  0  0  0
  7  9  1  0  0  0  0
  7 16  1  0  0  0  0
  8 14  1  0  0  0  0
  9 16  1  0  0  0  0
 10 20  1  0  0  0  0
 11 20  1  0  0  0  0
 12 17  1  0  0  0  0
 13 19  1  0  0  0  0
 15 18  1  0  0  0  0
M  END
>  <Score>
-31.535596

>  <Energy>
0.000000

>  <Confidence>
0.000000

>  <Binding_Affinity>
-16.000000

>  <IC50_nM>
0.0

$$$$
