ml_pose_25
  PandaDock generated structure

 13 13  0  0  0  0  0  0  0  0999 V2000
  -14.0108  -18.6895    8.1658 O   0  0  0  0  0  0  0  0  0  0  0  0
  -15.1651  -17.9580    8.1394 C   0  0  0  0  0  0  0  0  0  0  0  0
  -15.6089  -17.4757    7.0466 C   0  0  0  0  0  0  0  0  0  0  0  0
  -15.8664  -17.8784    9.3648 C   0  0  0  0  0  0  0  0  0  0  0  0
  -16.8519  -16.7266    7.0215 C   0  0  0  0  0  0  0  0  0  0  0  0
  -14.9221  -17.6665    5.6885 C   0  0  0  0  0  0  0  0  0  0  0  0
  -17.5827  -16.5005    8.1494 C   0  0  0  0  0  0  0  0  0  0  0  0
  -17.0748  -17.0643    9.4111 C   0  0  0  0  0  0  0  0  0  0  0  0
  -15.3646  -18.2990   10.6275 C   0  0  0  0  0  0  0  0  0  0  0  0
  -15.4146  -18.8150    4.8106 C   0  0  0  0  0  0  0  0  0  0  0  0
  -14.9377  -16.3963    4.9160 C   0  0  0  0  0  0  0  0  0  0  0  0
  -14.7926  -17.3636   11.6385 C   0  0  0  0  0  0  0  0  0  0  0  0
  -16.5077  -19.2666   11.3603 C   0  0  0  0  0  0  0  0  0  0  0  0
  1  2  1  0  0  0  0
  2  3  1  0  0  0  0
  2  4  1  0  0  0  0
  3  5  1  0  0  0  0
  3  6  1  0  0  0  0
  4  8  1  0  0  0  0
  4  9  1  0  0  0  0
  5  7  1  0  0  0  0
  6 10  1  0  0  0  0
  6 11  1  0  0  0  0
  7  8  1  0  0  0  0
  9 12  1  0  0  0  0
  9 13  1  0  0  0  0
M  END
>  <Score>
0.111891

>  <Energy>
-8.243152

>  <Confidence>
0.888109

>  <Binding_Affinity>
-12.262174

>  <IC50_nM>
1.0

$$$$
ml_pose_18
  PandaDock generated structure

 13 13  0  0  0  0  0  0  0  0999 V2000
  -14.9893  -19.2853    9.0098 O   0  0  0  0  0  0  0  0  0  0  0  0
  -15.4491  -18.2771    8.4213 C   0  0  0  0  0  0  0  0  0  0  0  0
  -14.8808  -17.5996    7.3725 C   0  0  0  0  0  0  0  0  0  0  0  0
  -16.6328  -17.6390    8.9258 C   0  0  0  0  0  0  0  0  0  0  0  0
  -15.2764  -16.4962    6.8008 C   0  0  0  0  0  0  0  0  0  0  0  0
  -13.5890  -18.2975    6.8471 C   0  0  0  0  0  0  0  0  0  0  0  0
  -16.4133  -15.7471    7.2586 C   0  0  0  0  0  0  0  0  0  0  0  0
  -17.0692  -16.3472    8.3731 C   0  0  0  0  0  0  0  0  0  0  0  0
  -17.4018  -18.1389   10.1004 C   0  0  0  0  0  0  0  0  0  0  0  0
  -13.8534  -19.0766    5.6518 C   0  0  0  0  0  0  0  0  0  0  0  0
  -12.4592  -17.4274    6.5311 C   0  0  0  0  0  0  0  0  0  0  0  0
  -17.2223  -17.4265   11.2893 C   0  0  0  0  0  0  0  0  0  0  0  0
  -18.8633  -18.3417    9.7585 C   0  0  0  0  0  0  0  0  0  0  0  0
  1  2  1  0  0  0  0
  2  3  1  0  0  0  0
  2  4  1  0  0  0  0
  3  5  1  0  0  0  0
  3  6  1  0  0  0  0
  4  8  1  0  0  0  0
  4  9  1  0  0  0  0
  5  7  1  0  0  0  0
  6 10  1  0  0  0  0
  6 11  1  0  0  0  0
  7  8  1  0  0  0  0
  9 12  1  0  0  0  0
  9 13  1  0  0  0  0
M  END
>  <Score>
0.113418

>  <Energy>
-5.288142

>  <Confidence>
0.886582

>  <Binding_Affinity>
-12.231643

>  <IC50_nM>
1.1

$$$$
ml_pose_6
  PandaDock generated structure

 13 13  0  0  0  0  0  0  0  0999 V2000
  -15.2768  -19.4899    7.4139 O   0  0  0  0  0  0  0  0  0  0  0  0
  -15.5072  -18.2423    7.9282 C   0  0  0  0  0  0  0  0  0  0  0  0
  -16.7754  -17.6317    7.6146 C   0  0  0  0  0  0  0  0  0  0  0  0
  -14.7160  -17.6273    8.8717 C   0  0  0  0  0  0  0  0  0  0  0  0
  -17.2050  -16.2854    8.0226 C   0  0  0  0  0  0  0  0  0  0  0  0
  -17.7513  -18.3580    6.5373 C   0  0  0  0  0  0  0  0  0  0  0  0
  -16.1055  -15.6735    9.0226 C   0  0  0  0  0  0  0  0  0  0  0  0
  -14.9906  -16.3562    9.3464 C   0  0  0  0  0  0  0  0  0  0  0  0
  -13.4369  -18.2451    9.1692 C   0  0  0  0  0  0  0  0  0  0  0  0
  -18.8827  -18.9014    7.4187 C   0  0  0  0  0  0  0  0  0  0  0  0
  -18.1782  -17.2904    5.6682 C   0  0  0  0  0  0  0  0  0  0  0  0
  -12.1192  -17.6017    8.5638 C   0  0  0  0  0  0  0  0  0  0  0  0
  -13.1553  -18.3971   10.7628 C   0  0  0  0  0  0  0  0  0  0  0  0
  1  2  1  0  0  0  0
  2  3  1  0  0  0  0
  2  4  1  0  0  0  0
  3  5  1  0  0  0  0
  3  6  1  0  0  0  0
  4  8  1  0  0  0  0
  4  9  1  0  0  0  0
  5  7  1  0  0  0  0
  6 10  1  0  0  0  0
  6 11  1  0  0  0  0
  7  8  1  0  0  0  0
  9 12  1  0  0  0  0
  9 13  1  0  0  0  0
M  END
>  <Score>
0.130965

>  <Energy>
-7.514260

>  <Confidence>
0.869035

>  <Binding_Affinity>
-11.880706

>  <IC50_nM>
2.0

$$$$
ml_pose_29
  PandaDock generated structure

 13 13  0  0  0  0  0  0  0  0999 V2000
  -14.5935  -16.7554    9.4975 O   0  0  0  0  0  0  0  0  0  0  0  0
  -15.4260  -17.3800    8.5860 C   0  0  0  0  0  0  0  0  0  0  0  0
  -14.8376  -18.5025    7.9730 C   0  0  0  0  0  0  0  0  0  0  0  0
  -16.6364  -17.0042    8.2797 C   0  0  0  0  0  0  0  0  0  0  0  0
  -15.6305  -19.1681    6.9921 C   0  0  0  0  0  0  0  0  0  0  0  0
  -13.4713  -18.9780    8.2631 C   0  0  0  0  0  0  0  0  0  0  0  0
  -16.8699  -18.7601    6.6658 C   0  0  0  0  0  0  0  0  0  0  0  0
  -17.4104  -17.6964    7.2897 C   0  0  0  0  0  0  0  0  0  0  0  0
  -17.1773  -15.6965    8.9132 C   0  0  0  0  0  0  0  0  0  0  0  0
  -13.5173  -20.1352    9.1915 C   0  0  0  0  0  0  0  0  0  0  0  0
  -12.6508  -19.2819    6.9651 C   0  0  0  0  0  0  0  0  0  0  0  0
  -17.2902  -14.5624    8.2229 C   0  0  0  0  0  0  0  0  0  0  0  0
  -18.5886  -16.1793    9.5005 C   0  0  0  0  0  0  0  0  0  0  0  0
  1  2  1  0  0  0  0
  2  3  1  0  0  0  0
  2  4  1  0  0  0  0
  3  5  1  0  0  0  0
  3  6  1  0  0  0  0
  4  8  1  0  0  0  0
  4  9  1  0  0  0  0
  5  7  1  0  0  0  0
  6 10  1  0  0  0  0
  6 11  1  0  0  0  0
  7  8  1  0  0  0  0
  9 12  1  0  0  0  0
  9 13  1  0  0  0  0
M  END
>  <Score>
0.146624

>  <Energy>
-8.273888

>  <Confidence>
0.853376

>  <Binding_Affinity>
-11.567522

>  <IC50_nM>
3.3

$$$$
ml_pose_22
  PandaDock generated structure

 13 13  0  0  0  0  0  0  0  0999 V2000
  -17.1640  -16.9510    9.1614 O   0  0  0  0  0  0  0  0  0  0  0  0
  -16.0939  -17.4390    8.4756 C   0  0  0  0  0  0  0  0  0  0  0  0
  -14.7620  -17.0868    8.8544 C   0  0  0  0  0  0  0  0  0  0  0  0
  -16.3235  -18.3745    7.4059 C   0  0  0  0  0  0  0  0  0  0  0  0
  -13.7972  -17.6143    8.0676 C   0  0  0  0  0  0  0  0  0  0  0  0
  -14.5825  -16.2512    9.9911 C   0  0  0  0  0  0  0  0  0  0  0  0
  -14.0242  -18.5235    7.0958 C   0  0  0  0  0  0  0  0  0  0  0  0
  -15.3722  -18.8742    6.7732 C   0  0  0  0  0  0  0  0  0  0  0  0
  -17.8971  -18.6443    7.0205 C   0  0  0  0  0  0  0  0  0  0  0  0
  -14.1995  -16.9612   11.1780 C   0  0  0  0  0  0  0  0  0  0  0  0
  -13.4843  -15.1524    9.6539 C   0  0  0  0  0  0  0  0  0  0  0  0
  -18.3297  -18.0097    5.7533 C   0  0  0  0  0  0  0  0  0  0  0  0
  -18.0701  -20.2179    6.9093 C   0  0  0  0  0  0  0  0  0  0  0  0
  1  2  1  0  0  0  0
  2  3  1  0  0  0  0
  2  4  1  0  0  0  0
  3  5  1  0  0  0  0
  3  6  1  0  0  0  0
  4  8  1  0  0  0  0
  4  9  1  0  0  0  0
  5  7  1  0  0  0  0
  6 10  1  0  0  0  0
  6 11  1  0  0  0  0
  7  8  1  0  0  0  0
  9 12  1  0  0  0  0
  9 13  1  0  0  0  0
M  END
>  <Score>
0.183425

>  <Energy>
-6.001641

>  <Confidence>
0.816575

>  <Binding_Affinity>
-10.831501

>  <IC50_nM>
11.5

$$$$
ml_pose_11
  PandaDock generated structure

 13 13  0  0  0  0  0  0  0  0999 V2000
  -17.4531  -17.0149    8.9706 O   0  0  0  0  0  0  0  0  0  0  0  0
  -16.1604  -17.5323    8.2830 C   0  0  0  0  0  0  0  0  0  0  0  0
  -15.4706  -18.2249    9.2165 C   0  0  0  0  0  0  0  0  0  0  0  0
  -15.7285  -17.1760    7.0921 C   0  0  0  0  0  0  0  0  0  0  0  0
  -14.2603  -18.7562    8.7354 C   0  0  0  0  0  0  0  0  0  0  0  0
  -15.8275  -18.6458   10.5177 C   0  0  0  0  0  0  0  0  0  0  0  0
  -13.7893  -18.4736    7.4604 C   0  0  0  0  0  0  0  0  0  0  0  0
  -14.5064  -17.6183    6.5837 C   0  0  0  0  0  0  0  0  0  0  0  0
  -16.6639  -16.2676    6.2703 C   0  0  0  0  0  0  0  0  0  0  0  0
  -16.5013  -19.9759   10.6437 C   0  0  0  0  0  0  0  0  0  0  0  0
  -14.6886  -18.5561   11.5591 C   0  0  0  0  0  0  0  0  0  0  0  0
  -16.1380  -14.8332    6.0679 C   0  0  0  0  0  0  0  0  0  0  0  0
  -16.9121  -17.0253    4.9395 C   0  0  0  0  0  0  0  0  0  0  0  0
  1  2  1  0  0  0  0
  2  3  1  0  0  0  0
  2  4  1  0  0  0  0
  3  5  1  0  0  0  0
  3  6  1  0  0  0  0
  4  8  1  0  0  0  0
  4  9  1  0  0  0  0
  5  7  1  0  0  0  0
  6 10  1  0  0  0  0
  6 11  1  0  0  0  0
  7  8  1  0  0  0  0
  9 12  1  0  0  0  0
  9 13  1  0  0  0  0
M  END
>  <Score>
0.204848

>  <Energy>
-6.784634

>  <Confidence>
0.795152

>  <Binding_Affinity>
-10.403043

>  <IC50_nM>
23.6

$$$$
ml_pose_16
  PandaDock generated structure

 13 13  0  0  0  0  0  0  0  0999 V2000
  -17.0860  -16.9223    6.9798 O   0  0  0  0  0  0  0  0  0  0  0  0
  -16.0915  -17.4107    7.9125 C   0  0  0  0  0  0  0  0  0  0  0  0
  -14.8418  -17.6684    7.2628 C   0  0  0  0  0  0  0  0  0  0  0  0
  -16.3893  -17.7413    9.1865 C   0  0  0  0  0  0  0  0  0  0  0  0
  -14.0155  -18.3616    8.1707 C   0  0  0  0  0  0  0  0  0  0  0  0
  -14.4576  -17.5539    5.9739 C   0  0  0  0  0  0  0  0  0  0  0  0
  -14.2550  -18.6818    9.4819 C   0  0  0  0  0  0  0  0  0  0  0  0
  -15.5002  -18.3096    9.9775 C   0  0  0  0  0  0  0  0  0  0  0  0
  -17.8037  -17.4102    9.6924 C   0  0  0  0  0  0  0  0  0  0  0  0
  -13.6750  -16.2922    5.7927 C   0  0  0  0  0  0  0  0  0  0  0  0
  -13.6576  -18.6401    5.2339 C   0  0  0  0  0  0  0  0  0  0  0  0
  -18.5818  -18.6247    9.7899 C   0  0  0  0  0  0  0  0  0  0  0  0
  -17.7449  -16.4833   10.8856 C   0  0  0  0  0  0  0  0  0  0  0  0
  1  2  1  0  0  0  0
  2  3  1  0  0  0  0
  2  4  1  0  0  0  0
  3  5  1  0  0  0  0
  3  6  1  0  0  0  0
  4  8  1  0  0  0  0
  4  9  1  0  0  0  0
  5  7  1  0  0  0  0
  6 10  1  0  0  0  0
  6 11  1  0  0  0  0
  7  8  1  0  0  0  0
  9 12  1  0  0  0  0
  9 13  1  0  0  0  0
M  END
>  <Score>
0.213432

>  <Energy>
-6.038708

>  <Confidence>
0.786568

>  <Binding_Affinity>
-10.231370

>  <IC50_nM>
31.6

$$$$
ml_pose_4
  PandaDock generated structure

 13 13  0  0  0  0  0  0  0  0999 V2000
  -16.8143  -16.9962    6.6605 O   0  0  0  0  0  0  0  0  0  0  0  0
  -15.9762  -17.5668    7.7730 C   0  0  0  0  0  0  0  0  0  0  0  0
  -15.7462  -18.9119    7.8052 C   0  0  0  0  0  0  0  0  0  0  0  0
  -15.6302  -16.7213    8.7081 C   0  0  0  0  0  0  0  0  0  0  0  0
  -15.0556  -19.3171    8.8798 C   0  0  0  0  0  0  0  0  0  0  0  0
  -16.1260  -19.7671    6.7329 C   0  0  0  0  0  0  0  0  0  0  0  0
  -14.5209  -18.4568    9.8410 C   0  0  0  0  0  0  0  0  0  0  0  0
  -14.7578  -17.1167    9.7512 C   0  0  0  0  0  0  0  0  0  0  0  0
  -15.8833  -15.0651    8.6095 C   0  0  0  0  0  0  0  0  0  0  0  0
  -15.1333  -20.0655    5.6967 C   0  0  0  0  0  0  0  0  0  0  0  0
  -16.7777  -21.0799    7.3364 C   0  0  0  0  0  0  0  0  0  0  0  0
  -17.0286  -14.7459    9.7130 C   0  0  0  0  0  0  0  0  0  0  0  0
  -14.6500  -14.2897    8.8327 C   0  0  0  0  0  0  0  0  0  0  0  0
  1  2  1  0  0  0  0
  2  3  1  0  0  0  0
  2  4  1  0  0  0  0
  3  5  1  0  0  0  0
  3  6  1  0  0  0  0
  4  8  1  0  0  0  0
  4  9  1  0  0  0  0
  5  7  1  0  0  0  0
  6 10  1  0  0  0  0
  6 11  1  0  0  0  0
  7  8  1  0  0  0  0
  9 12  1  0  0  0  0
  9 13  1  0  0  0  0
M  END
>  <Score>
0.223253

>  <Energy>
-7.884472

>  <Confidence>
0.776747

>  <Binding_Affinity>
-10.034948

>  <IC50_nM>
44.0

$$$$
ml_pose_3
  PandaDock generated structure

 13 13  0  0  0  0  0  0  0  0999 V2000
  -15.5656  -19.2359    9.3540 O   0  0  0  0  0  0  0  0  0  0  0  0
  -15.6285  -18.1853    8.4950 C   0  0  0  0  0  0  0  0  0  0  0  0
  -15.9396  -18.4152    7.2639 C   0  0  0  0  0  0  0  0  0  0  0  0
  -15.5775  -16.8900    9.0164 C   0  0  0  0  0  0  0  0  0  0  0  0
  -15.9318  -17.2482    6.3620 C   0  0  0  0  0  0  0  0  0  0  0  0
  -16.0390  -19.8124    6.5927 C   0  0  0  0  0  0  0  0  0  0  0  0
  -15.8264  -15.8882    6.8503 C   0  0  0  0  0  0  0  0  0  0  0  0
  -15.4953  -15.7153    8.1575 C   0  0  0  0  0  0  0  0  0  0  0  0
  -15.2209  -16.6646   10.4999 C   0  0  0  0  0  0  0  0  0  0  0  0
  -17.5680  -20.1239    6.4638 C   0  0  0  0  0  0  0  0  0  0  0  0
  -15.3466  -19.9729    5.3496 C   0  0  0  0  0  0  0  0  0  0  0  0
  -13.7576  -16.1997   10.8066 C   0  0  0  0  0  0  0  0  0  0  0  0
  -16.2033  -15.7485   11.1284 C   0  0  0  0  0  0  0  0  0  0  0  0
  1  2  1  0  0  0  0
  2  3  1  0  0  0  0
  2  4  1  0  0  0  0
  3  5  1  0  0  0  0
  3  6  1  0  0  0  0
  4  8  1  0  0  0  0
  4  9  1  0  0  0  0
  5  7  1  0  0  0  0
  6 10  1  0  0  0  0
  6 11  1  0  0  0  0
  7  8  1  0  0  0  0
  9 12  1  0  0  0  0
  9 13  1  0  0  0  0
M  END
>  <Score>
0.229142

>  <Energy>
-5.291352

>  <Confidence>
0.770858

>  <Binding_Affinity>
-9.917160

>  <IC50_nM>
53.7

$$$$
ml_pose_8
  PandaDock generated structure

 13 13  0  0  0  0  0  0  0  0999 V2000
  -13.8962  -17.1230    7.7121 O   0  0  0  0  0  0  0  0  0  0  0  0
  -15.1906  -17.5187    7.9242 C   0  0  0  0  0  0  0  0  0  0  0  0
  -16.1494  -16.5756    8.5107 C   0  0  0  0  0  0  0  0  0  0  0  0
  -15.4459  -18.8201    8.0075 C   0  0  0  0  0  0  0  0  0  0  0  0
  -17.3426  -17.0650    8.9270 C   0  0  0  0  0  0  0  0  0  0  0  0
  -15.8202  -15.1388    8.4805 C   0  0  0  0  0  0  0  0  0  0  0  0
  -17.6773  -18.4507    8.7357 C   0  0  0  0  0  0  0  0  0  0  0  0
  -16.6906  -19.2958    8.4305 C   0  0  0  0  0  0  0  0  0  0  0  0
  -14.4090  -19.8883    7.4503 C   0  0  0  0  0  0  0  0  0  0  0  0
  -16.3795  -14.3735    7.3092 C   0  0  0  0  0  0  0  0  0  0  0  0
  -16.3989  -14.5239    9.8915 C   0  0  0  0  0  0  0  0  0  0  0  0
  -13.7808  -20.6307    8.5696 C   0  0  0  0  0  0  0  0  0  0  0  0
  -14.9188  -20.6960    6.3911 C   0  0  0  0  0  0  0  0  0  0  0  0
  1  2  1  0  0  0  0
  2  3  1  0  0  0  0
  2  4  1  0  0  0  0
  3  5  1  0  0  0  0
  3  6  1  0  0  0  0
  4  8  1  0  0  0  0
  4  9  1  0  0  0  0
  5  7  1  0  0  0  0
  6 10  1  0  0  0  0
  6 11  1  0  0  0  0
  7  8  1  0  0  0  0
  9 12  1  0  0  0  0
  9 13  1  0  0  0  0
M  END
>  <Score>
0.235080

>  <Energy>
-5.117448

>  <Confidence>
0.764920

>  <Binding_Affinity>
-9.798391

>  <IC50_nM>
65.6

$$$$
