ml_pose_25
  PandaDock generated structure

 13 13  0  0  0  0  0  0  0  0999 V2000
  -14.0108  -18.6895    8.1658 O   0  0  0  0  0  0  0  0  0  0  0  0
  -15.1651  -17.9580    8.1394 C   0  0  0  0  0  0  0  0  0  0  0  0
  -15.6089  -17.4757    7.0466 C   0  0  0  0  0  0  0  0  0  0  0  0
  -15.8664  -17.8784    9.3648 C   0  0  0  0  0  0  0  0  0  0  0  0
  -16.8519  -16.7266    7.0215 C   0  0  0  0  0  0  0  0  0  0  0  0
  -14.9221  -17.6665    5.6885 C   0  0  0  0  0  0  0  0  0  0  0  0
  -17.5827  -16.5005    8.1494 C   0  0  0  0  0  0  0  0  0  0  0  0
  -17.0748  -17.0643    9.4111 C   0  0  0  0  0  0  0  0  0  0  0  0
  -15.3646  -18.2990   10.6275 C   0  0  0  0  0  0  0  0  0  0  0  0
  -15.4146  -18.8150    4.8106 C   0  0  0  0  0  0  0  0  0  0  0  0
  -14.9377  -16.3963    4.9160 C   0  0  0  0  0  0  0  0  0  0  0  0
  -14.7926  -17.3636   11.6385 C   0  0  0  0  0  0  0  0  0  0  0  0
  -16.5077  -19.2666   11.3603 C   0  0  0  0  0  0  0  0  0  0  0  0
  1  2  1  0  0  0  0
  2  3  1  0  0  0  0
  2  4  1  0  0  0  0
  3  5  1  0  0  0  0
  3  6  1  0  0  0  0
  4  8  1  0  0  0  0
  4  9  1  0  0  0  0
  5  7  1  0  0  0  0
  6 10  1  0  0  0  0
  6 11  1  0  0  0  0
  7  8  1  0  0  0  0
  9 12  1  0  0  0  0
  9 13  1  0  0  0  0
M  END
>  <Score>
0.111891

>  <Energy>
-8.243152

>  <Confidence>
0.888109

>  <Binding_Affinity>
-12.262174

>  <IC50_nM>
1.0

$$$$
