ml_pose_22
  PandaDock generated structure

 13 13  0  0  0  0  0  0  0  0999 V2000
  -17.1640  -16.9510    9.1614 O   0  0  0  0  0  0  0  0  0  0  0  0
  -16.0939  -17.4390    8.4756 C   0  0  0  0  0  0  0  0  0  0  0  0
  -14.7620  -17.0868    8.8544 C   0  0  0  0  0  0  0  0  0  0  0  0
  -16.3235  -18.3745    7.4059 C   0  0  0  0  0  0  0  0  0  0  0  0
  -13.7972  -17.6143    8.0676 C   0  0  0  0  0  0  0  0  0  0  0  0
  -14.5825  -16.2512    9.9911 C   0  0  0  0  0  0  0  0  0  0  0  0
  -14.0242  -18.5235    7.0958 C   0  0  0  0  0  0  0  0  0  0  0  0
  -15.3722  -18.8742    6.7732 C   0  0  0  0  0  0  0  0  0  0  0  0
  -17.8971  -18.6443    7.0205 C   0  0  0  0  0  0  0  0  0  0  0  0
  -14.1995  -16.9612   11.1780 C   0  0  0  0  0  0  0  0  0  0  0  0
  -13.4843  -15.1524    9.6539 C   0  0  0  0  0  0  0  0  0  0  0  0
  -18.3297  -18.0097    5.7533 C   0  0  0  0  0  0  0  0  0  0  0  0
  -18.0701  -20.2179    6.9093 C   0  0  0  0  0  0  0  0  0  0  0  0
  1  2  1  0  0  0  0
  2  3  1  0  0  0  0
  2  4  1  0  0  0  0
  3  5  1  0  0  0  0
  3  6  1  0  0  0  0
  4  8  1  0  0  0  0
  4  9  1  0  0  0  0
  5  7  1  0  0  0  0
  6 10  1  0  0  0  0
  6 11  1  0  0  0  0
  7  8  1  0  0  0  0
  9 12  1  0  0  0  0
  9 13  1  0  0  0  0
M  END
>  <Score>
0.183425

>  <Energy>
-6.001641

>  <Confidence>
0.816575

>  <Binding_Affinity>
-10.831501

>  <IC50_nM>
11.5

$$$$
