ml_pose_8
  PandaDock generated structure

 13 13  0  0  0  0  0  0  0  0999 V2000
  -13.8962  -17.1230    7.7121 O   0  0  0  0  0  0  0  0  0  0  0  0
  -15.1906  -17.5187    7.9242 C   0  0  0  0  0  0  0  0  0  0  0  0
  -16.1494  -16.5756    8.5107 C   0  0  0  0  0  0  0  0  0  0  0  0
  -15.4459  -18.8201    8.0075 C   0  0  0  0  0  0  0  0  0  0  0  0
  -17.3426  -17.0650    8.9270 C   0  0  0  0  0  0  0  0  0  0  0  0
  -15.8202  -15.1388    8.4805 C   0  0  0  0  0  0  0  0  0  0  0  0
  -17.6773  -18.4507    8.7357 C   0  0  0  0  0  0  0  0  0  0  0  0
  -16.6906  -19.2958    8.4305 C   0  0  0  0  0  0  0  0  0  0  0  0
  -14.4090  -19.8883    7.4503 C   0  0  0  0  0  0  0  0  0  0  0  0
  -16.3795  -14.3735    7.3092 C   0  0  0  0  0  0  0  0  0  0  0  0
  -16.3989  -14.5239    9.8915 C   0  0  0  0  0  0  0  0  0  0  0  0
  -13.7808  -20.6307    8.5696 C   0  0  0  0  0  0  0  0  0  0  0  0
  -14.9188  -20.6960    6.3911 C   0  0  0  0  0  0  0  0  0  0  0  0
  1  2  1  0  0  0  0
  2  3  1  0  0  0  0
  2  4  1  0  0  0  0
  3  5  1  0  0  0  0
  3  6  1  0  0  0  0
  4  8  1  0  0  0  0
  4  9  1  0  0  0  0
  5  7  1  0  0  0  0
  6 10  1  0  0  0  0
  6 11  1  0  0  0  0
  7  8  1  0  0  0  0
  9 12  1  0  0  0  0
  9 13  1  0  0  0  0
M  END
>  <Score>
0.235080

>  <Energy>
-5.117448

>  <Confidence>
0.764920

>  <Binding_Affinity>
-9.798391

>  <IC50_nM>
65.6

$$$$
