ml_pose_16
  PandaDock generated structure

 13 13  0  0  0  0  0  0  0  0999 V2000
  -17.0860  -16.9223    6.9798 O   0  0  0  0  0  0  0  0  0  0  0  0
  -16.0915  -17.4107    7.9125 C   0  0  0  0  0  0  0  0  0  0  0  0
  -14.8418  -17.6684    7.2628 C   0  0  0  0  0  0  0  0  0  0  0  0
  -16.3893  -17.7413    9.1865 C   0  0  0  0  0  0  0  0  0  0  0  0
  -14.0155  -18.3616    8.1707 C   0  0  0  0  0  0  0  0  0  0  0  0
  -14.4576  -17.5539    5.9739 C   0  0  0  0  0  0  0  0  0  0  0  0
  -14.2550  -18.6818    9.4819 C   0  0  0  0  0  0  0  0  0  0  0  0
  -15.5002  -18.3096    9.9775 C   0  0  0  0  0  0  0  0  0  0  0  0
  -17.8037  -17.4102    9.6924 C   0  0  0  0  0  0  0  0  0  0  0  0
  -13.6750  -16.2922    5.7927 C   0  0  0  0  0  0  0  0  0  0  0  0
  -13.6576  -18.6401    5.2339 C   0  0  0  0  0  0  0  0  0  0  0  0
  -18.5818  -18.6247    9.7899 C   0  0  0  0  0  0  0  0  0  0  0  0
  -17.7449  -16.4833   10.8856 C   0  0  0  0  0  0  0  0  0  0  0  0
  1  2  1  0  0  0  0
  2  3  1  0  0  0  0
  2  4  1  0  0  0  0
  3  5  1  0  0  0  0
  3  6  1  0  0  0  0
  4  8  1  0  0  0  0
  4  9  1  0  0  0  0
  5  7  1  0  0  0  0
  6 10  1  0  0  0  0
  6 11  1  0  0  0  0
  7  8  1  0  0  0  0
  9 12  1  0  0  0  0
  9 13  1  0  0  0  0
M  END
>  <Score>
0.213432

>  <Energy>
-6.038708

>  <Confidence>
0.786568

>  <Binding_Affinity>
-10.231370

>  <IC50_nM>
31.6

$$$$
