ml_pose_3
  PandaDock generated structure

 13 13  0  0  0  0  0  0  0  0999 V2000
  -15.5656  -19.2359    9.3540 O   0  0  0  0  0  0  0  0  0  0  0  0
  -15.6285  -18.1853    8.4950 C   0  0  0  0  0  0  0  0  0  0  0  0
  -15.9396  -18.4152    7.2639 C   0  0  0  0  0  0  0  0  0  0  0  0
  -15.5775  -16.8900    9.0164 C   0  0  0  0  0  0  0  0  0  0  0  0
  -15.9318  -17.2482    6.3620 C   0  0  0  0  0  0  0  0  0  0  0  0
  -16.0390  -19.8124    6.5927 C   0  0  0  0  0  0  0  0  0  0  0  0
  -15.8264  -15.8882    6.8503 C   0  0  0  0  0  0  0  0  0  0  0  0
  -15.4953  -15.7153    8.1575 C   0  0  0  0  0  0  0  0  0  0  0  0
  -15.2209  -16.6646   10.4999 C   0  0  0  0  0  0  0  0  0  0  0  0
  -17.5680  -20.1239    6.4638 C   0  0  0  0  0  0  0  0  0  0  0  0
  -15.3466  -19.9729    5.3496 C   0  0  0  0  0  0  0  0  0  0  0  0
  -13.7576  -16.1997   10.8066 C   0  0  0  0  0  0  0  0  0  0  0  0
  -16.2033  -15.7485   11.1284 C   0  0  0  0  0  0  0  0  0  0  0  0
  1  2  1  0  0  0  0
  2  3  1  0  0  0  0
  2  4  1  0  0  0  0
  3  5  1  0  0  0  0
  3  6  1  0  0  0  0
  4  8  1  0  0  0  0
  4  9  1  0  0  0  0
  5  7  1  0  0  0  0
  6 10  1  0  0  0  0
  6 11  1  0  0  0  0
  7  8  1  0  0  0  0
  9 12  1  0  0  0  0
  9 13  1  0  0  0  0
M  END
>  <Score>
0.229142

>  <Energy>
-5.291352

>  <Confidence>
0.770858

>  <Binding_Affinity>
-9.917160

>  <IC50_nM>
53.7

$$$$
