ml_pose_18
  PandaDock generated structure

 13 13  0  0  0  0  0  0  0  0999 V2000
  -14.9893  -19.2853    9.0098 O   0  0  0  0  0  0  0  0  0  0  0  0
  -15.4491  -18.2771    8.4213 C   0  0  0  0  0  0  0  0  0  0  0  0
  -14.8808  -17.5996    7.3725 C   0  0  0  0  0  0  0  0  0  0  0  0
  -16.6328  -17.6390    8.9258 C   0  0  0  0  0  0  0  0  0  0  0  0
  -15.2764  -16.4962    6.8008 C   0  0  0  0  0  0  0  0  0  0  0  0
  -13.5890  -18.2975    6.8471 C   0  0  0  0  0  0  0  0  0  0  0  0
  -16.4133  -15.7471    7.2586 C   0  0  0  0  0  0  0  0  0  0  0  0
  -17.0692  -16.3472    8.3731 C   0  0  0  0  0  0  0  0  0  0  0  0
  -17.4018  -18.1389   10.1004 C   0  0  0  0  0  0  0  0  0  0  0  0
  -13.8534  -19.0766    5.6518 C   0  0  0  0  0  0  0  0  0  0  0  0
  -12.4592  -17.4274    6.5311 C   0  0  0  0  0  0  0  0  0  0  0  0
  -17.2223  -17.4265   11.2893 C   0  0  0  0  0  0  0  0  0  0  0  0
  -18.8633  -18.3417    9.7585 C   0  0  0  0  0  0  0  0  0  0  0  0
  1  2  1  0  0  0  0
  2  3  1  0  0  0  0
  2  4  1  0  0  0  0
  3  5  1  0  0  0  0
  3  6  1  0  0  0  0
  4  8  1  0  0  0  0
  4  9  1  0  0  0  0
  5  7  1  0  0  0  0
  6 10  1  0  0  0  0
  6 11  1  0  0  0  0
  7  8  1  0  0  0  0
  9 12  1  0  0  0  0
  9 13  1  0  0  0  0
M  END
>  <Score>
0.113418

>  <Energy>
-5.288142

>  <Confidence>
0.886582

>  <Binding_Affinity>
-12.231643

>  <IC50_nM>
1.1

$$$$
