ml_pose_11
  PandaDock generated structure

 13 13  0  0  0  0  0  0  0  0999 V2000
  -17.4531  -17.0149    8.9706 O   0  0  0  0  0  0  0  0  0  0  0  0
  -16.1604  -17.5323    8.2830 C   0  0  0  0  0  0  0  0  0  0  0  0
  -15.4706  -18.2249    9.2165 C   0  0  0  0  0  0  0  0  0  0  0  0
  -15.7285  -17.1760    7.0921 C   0  0  0  0  0  0  0  0  0  0  0  0
  -14.2603  -18.7562    8.7354 C   0  0  0  0  0  0  0  0  0  0  0  0
  -15.8275  -18.6458   10.5177 C   0  0  0  0  0  0  0  0  0  0  0  0
  -13.7893  -18.4736    7.4604 C   0  0  0  0  0  0  0  0  0  0  0  0
  -14.5064  -17.6183    6.5837 C   0  0  0  0  0  0  0  0  0  0  0  0
  -16.6639  -16.2676    6.2703 C   0  0  0  0  0  0  0  0  0  0  0  0
  -16.5013  -19.9759   10.6437 C   0  0  0  0  0  0  0  0  0  0  0  0
  -14.6886  -18.5561   11.5591 C   0  0  0  0  0  0  0  0  0  0  0  0
  -16.1380  -14.8332    6.0679 C   0  0  0  0  0  0  0  0  0  0  0  0
  -16.9121  -17.0253    4.9395 C   0  0  0  0  0  0  0  0  0  0  0  0
  1  2  1  0  0  0  0
  2  3  1  0  0  0  0
  2  4  1  0  0  0  0
  3  5  1  0  0  0  0
  3  6  1  0  0  0  0
  4  8  1  0  0  0  0
  4  9  1  0  0  0  0
  5  7  1  0  0  0  0
  6 10  1  0  0  0  0
  6 11  1  0  0  0  0
  7  8  1  0  0  0  0
  9 12  1  0  0  0  0
  9 13  1  0  0  0  0
M  END
>  <Score>
0.204848

>  <Energy>
-6.784634

>  <Confidence>
0.795152

>  <Binding_Affinity>
-10.403043

>  <IC50_nM>
23.6

$$$$
