ml_pose_6
  PandaDock generated structure

 13 13  0  0  0  0  0  0  0  0999 V2000
  -15.2768  -19.4899    7.4139 O   0  0  0  0  0  0  0  0  0  0  0  0
  -15.5072  -18.2423    7.9282 C   0  0  0  0  0  0  0  0  0  0  0  0
  -16.7754  -17.6317    7.6146 C   0  0  0  0  0  0  0  0  0  0  0  0
  -14.7160  -17.6273    8.8717 C   0  0  0  0  0  0  0  0  0  0  0  0
  -17.2050  -16.2854    8.0226 C   0  0  0  0  0  0  0  0  0  0  0  0
  -17.7513  -18.3580    6.5373 C   0  0  0  0  0  0  0  0  0  0  0  0
  -16.1055  -15.6735    9.0226 C   0  0  0  0  0  0  0  0  0  0  0  0
  -14.9906  -16.3562    9.3464 C   0  0  0  0  0  0  0  0  0  0  0  0
  -13.4369  -18.2451    9.1692 C   0  0  0  0  0  0  0  0  0  0  0  0
  -18.8827  -18.9014    7.4187 C   0  0  0  0  0  0  0  0  0  0  0  0
  -18.1782  -17.2904    5.6682 C   0  0  0  0  0  0  0  0  0  0  0  0
  -12.1192  -17.6017    8.5638 C   0  0  0  0  0  0  0  0  0  0  0  0
  -13.1553  -18.3971   10.7628 C   0  0  0  0  0  0  0  0  0  0  0  0
  1  2  1  0  0  0  0
  2  3  1  0  0  0  0
  2  4  1  0  0  0  0
  3  5  1  0  0  0  0
  3  6  1  0  0  0  0
  4  8  1  0  0  0  0
  4  9  1  0  0  0  0
  5  7  1  0  0  0  0
  6 10  1  0  0  0  0
  6 11  1  0  0  0  0
  7  8  1  0  0  0  0
  9 12  1  0  0  0  0
  9 13  1  0  0  0  0
M  END
>  <Score>
0.130965

>  <Energy>
-7.514260

>  <Confidence>
0.869035

>  <Binding_Affinity>
-11.880706

>  <IC50_nM>
2.0

$$$$
