ml_pose_9
  PandaDock generated structure

 13 13  0  0  0  0  0  0  0  0999 V2000
  -14.2083  -16.5240    8.7993 O   0  0  0  0  0  0  0  0  0  0  0  0
  -15.2984  -17.2947    8.3285 C   0  0  0  0  0  0  0  0  0  0  0  0
  -15.2490  -18.5682    8.9442 C   0  0  0  0  0  0  0  0  0  0  0  0
  -16.3150  -16.9623    7.5001 C   0  0  0  0  0  0  0  0  0  0  0  0
  -16.2690  -19.5697    8.5173 C   0  0  0  0  0  0  0  0  0  0  0  0
  -14.1565  -19.1232    9.7639 C   0  0  0  0  0  0  0  0  0  0  0  0
  -17.2719  -18.9838    7.5232 C   0  0  0  0  0  0  0  0  0  0  0  0
  -17.2610  -17.7975    7.0725 C   0  0  0  0  0  0  0  0  0  0  0  0
  -16.3315  -15.4619    6.7861 C   0  0  0  0  0  0  0  0  0  0  0  0
  -14.6980  -19.1050   11.2650 C   0  0  0  0  0  0  0  0  0  0  0  0
  -13.6856  -20.4864    9.4097 C   0  0  0  0  0  0  0  0  0  0  0  0
  -15.7800  -15.3821    5.3900 C   0  0  0  0  0  0  0  0  0  0  0  0
  -17.5759  -14.8413    7.0403 C   0  0  0  0  0  0  0  0  0  0  0  0
  1  2  1  0  0  0  0
  2  3  1  0  0  0  0
  2  4  1  0  0  0  0
  3  5  1  0  0  0  0
  3  6  1  0  0  0  0
  4  8  1  0  0  0  0
  4  9  1  0  0  0  0
  5  7  1  0  0  0  0
  6 10  1  0  0  0  0
  6 11  1  0  0  0  0
  7  8  1  0  0  0  0
  9 12  1  0  0  0  0
  9 13  1  0  0  0  0
M  END
>  <Score>
0.139862

>  <Energy>
-5.985460

>  <Confidence>
0.860138

>  <Binding_Affinity>
-11.702755

>  <IC50_nM>
2.6

$$$$
ml_pose_0
  PandaDock generated structure

 13 13  0  0  0  0  0  0  0  0999 V2000
  -15.5342  -17.3350    6.2479 O   0  0  0  0  0  0  0  0  0  0  0  0
  -15.6349  -17.5929    7.6135 C   0  0  0  0  0  0  0  0  0  0  0  0
  -14.8330  -18.5827    8.1149 C   0  0  0  0  0  0  0  0  0  0  0  0
  -16.5035  -16.9279    8.3282 C   0  0  0  0  0  0  0  0  0  0  0  0
  -15.1146  -18.8424    9.5635 C   0  0  0  0  0  0  0  0  0  0  0  0
  -13.7992  -19.3250    7.3315 C   0  0  0  0  0  0  0  0  0  0  0  0
  -15.9580  -18.2060   10.3549 C   0  0  0  0  0  0  0  0  0  0  0  0
  -16.6862  -17.1297    9.7276 C   0  0  0  0  0  0  0  0  0  0  0  0
  -17.4627  -15.8284    7.8043 C   0  0  0  0  0  0  0  0  0  0  0  0
  -12.4324  -18.6960    7.4796 C   0  0  0  0  0  0  0  0  0  0  0  0
  -13.9515  -20.7746    7.7238 C   0  0  0  0  0  0  0  0  0  0  0  0
  -18.8195  -16.4161    7.5329 C   0  0  0  0  0  0  0  0  0  0  0  0
  -17.3704  -14.4432    8.5175 C   0  0  0  0  0  0  0  0  0  0  0  0
  1  2  1  0  0  0  0
  2  3  1  0  0  0  0
  2  4  1  0  0  0  0
  3  5  1  0  0  0  0
  3  6  1  0  0  0  0
  4  8  1  0  0  0  0
  4  9  1  0  0  0  0
  5  7  1  0  0  0  0
  6 10  1  0  0  0  0
  6 11  1  0  0  0  0
  7  8  1  0  0  0  0
  9 12  1  0  0  0  0
  9 13  1  0  0  0  0
M  END
>  <Score>
0.157014

>  <Energy>
-8.108800

>  <Confidence>
0.842986

>  <Binding_Affinity>
-11.359718

>  <IC50_nM>
4.7

$$$$
ml_pose_20
  PandaDock generated structure

 13 13  0  0  0  0  0  0  0  0999 V2000
  -15.5852  -15.9598    9.1361 O   0  0  0  0  0  0  0  0  0  0  0  0
  -15.7586  -17.1857    8.5776 C   0  0  0  0  0  0  0  0  0  0  0  0
  -15.8040  -17.2544    7.1147 C   0  0  0  0  0  0  0  0  0  0  0  0
  -15.5359  -18.4388    9.1175 C   0  0  0  0  0  0  0  0  0  0  0  0
  -15.7376  -18.4563    6.4718 C   0  0  0  0  0  0  0  0  0  0  0  0
  -15.9040  -15.9550    6.2111 C   0  0  0  0  0  0  0  0  0  0  0  0
  -15.7536  -19.5380    7.1543 C   0  0  0  0  0  0  0  0  0  0  0  0
  -15.5682  -19.4719    8.4838 C   0  0  0  0  0  0  0  0  0  0  0  0
  -15.5419  -18.4002   10.7350 C   0  0  0  0  0  0  0  0  0  0  0  0
  -14.6180  -15.4572    5.6891 C   0  0  0  0  0  0  0  0  0  0  0  0
  -17.0268  -16.0106    5.1742 C   0  0  0  0  0  0  0  0  0  0  0  0
  -16.9261  -18.8472   11.2677 C   0  0  0  0  0  0  0  0  0  0  0  0
  -14.3401  -19.1250   11.2070 C   0  0  0  0  0  0  0  0  0  0  0  0
  1  2  1  0  0  0  0
  2  3  1  0  0  0  0
  2  4  1  0  0  0  0
  3  5  1  0  0  0  0
  3  6  1  0  0  0  0
  4  8  1  0  0  0  0
  4  9  1  0  0  0  0
  5  7  1  0  0  0  0
  6 10  1  0  0  0  0
  6 11  1  0  0  0  0
  7  8  1  0  0  0  0
  9 12  1  0  0  0  0
  9 13  1  0  0  0  0
M  END
>  <Score>
0.197152

>  <Energy>
-6.510939

>  <Confidence>
0.802848

>  <Binding_Affinity>
-10.556969

>  <IC50_nM>
18.2

$$$$
ml_pose_1
  PandaDock generated structure

 13 13  0  0  0  0  0  0  0  0999 V2000
  -14.0928  -17.7002    7.0203 O   0  0  0  0  0  0  0  0  0  0  0  0
  -15.1369  -17.7432    7.7899 C   0  0  0  0  0  0  0  0  0  0  0  0
  -15.1797  -16.9515    8.9933 C   0  0  0  0  0  0  0  0  0  0  0  0
  -16.3089  -18.5397    7.5516 C   0  0  0  0  0  0  0  0  0  0  0  0
  -16.3041  -16.9225    9.7349 C   0  0  0  0  0  0  0  0  0  0  0  0
  -14.0277  -16.0360    9.2393 C   0  0  0  0  0  0  0  0  0  0  0  0
  -17.5024  -17.7450    9.5908 C   0  0  0  0  0  0  0  0  0  0  0  0
  -17.4776  -18.4080    8.3524 C   0  0  0  0  0  0  0  0  0  0  0  0
  -16.2767  -19.3696    6.3372 C   0  0  0  0  0  0  0  0  0  0  0  0
  -14.2968  -14.5321    8.8507 C   0  0  0  0  0  0  0  0  0  0  0  0
  -13.7788  -16.1777   10.8146 C   0  0  0  0  0  0  0  0  0  0  0  0
  -16.1244  -20.8885    6.6595 C   0  0  0  0  0  0  0  0  0  0  0  0
  -17.5933  -19.0860    5.4058 C   0  0  0  0  0  0  0  0  0  0  0  0
  1  2  1  0  0  0  0
  2  3  1  0  0  0  0
  2  4  1  0  0  0  0
  3  5  1  0  0  0  0
  3  6  1  0  0  0  0
  4  8  1  0  0  0  0
  4  9  1  0  0  0  0
  5  7  1  0  0  0  0
  6 10  1  0  0  0  0
  6 11  1  0  0  0  0
  7  8  1  0  0  0  0
  9 12  1  0  0  0  0
  9 13  1  0  0  0  0
M  END
>  <Score>
0.197774

>  <Energy>
-5.192839

>  <Confidence>
0.802226

>  <Binding_Affinity>
-10.544517

>  <IC50_nM>
18.6

$$$$
ml_pose_4
  PandaDock generated structure

 13 13  0  0  0  0  0  0  0  0999 V2000
  -17.3720  -18.4917    7.5212 O   0  0  0  0  0  0  0  0  0  0  0  0
  -16.2051  -17.9286    7.9814 C   0  0  0  0  0  0  0  0  0  0  0  0
  -15.2081  -17.9283    7.1099 C   0  0  0  0  0  0  0  0  0  0  0  0
  -16.2355  -17.4481    9.2147 C   0  0  0  0  0  0  0  0  0  0  0  0
  -13.8445  -17.4501    7.5997 C   0  0  0  0  0  0  0  0  0  0  0  0
  -15.1557  -18.4997    5.7393 C   0  0  0  0  0  0  0  0  0  0  0  0
  -13.8030  -16.9193    8.9284 C   0  0  0  0  0  0  0  0  0  0  0  0
  -14.8947  -16.9102    9.7429 C   0  0  0  0  0  0  0  0  0  0  0  0
  -17.2991  -17.3642   10.2730 C   0  0  0  0  0  0  0  0  0  0  0  0
  -15.2752  -17.3285    4.8036 C   0  0  0  0  0  0  0  0  0  0  0  0
  -13.9933  -19.3566    5.4035 C   0  0  0  0  0  0  0  0  0  0  0  0
  -17.2639  -18.4192   11.2418 C   0  0  0  0  0  0  0  0  0  0  0  0
  -17.5498  -16.0556   10.7805 C   0  0  0  0  0  0  0  0  0  0  0  0
  1  2  1  0  0  0  0
  2  3  1  0  0  0  0
  2  4  1  0  0  0  0
  3  5  1  0  0  0  0
  3  6  1  0  0  0  0
  4  8  1  0  0  0  0
  4  9  1  0  0  0  0
  5  7  1  0  0  0  0
  6 10  1  0  0  0  0
  6 11  1  0  0  0  0
  7  8  1  0  0  0  0
  9 12  1  0  0  0  0
  9 13  1  0  0  0  0
M  END
>  <Score>
0.238869

>  <Energy>
-4.910758

>  <Confidence>
0.761131

>  <Binding_Affinity>
-9.722617

>  <IC50_nM>
74.6

$$$$
ml_pose_21
  PandaDock generated structure

 13 13  0  0  0  0  0  0  0  0999 V2000
  -13.9973  -17.3317    7.5111 O   0  0  0  0  0  0  0  0  0  0  0  0
  -15.2293  -17.6101    7.9236 C   0  0  0  0  0  0  0  0  0  0  0  0
  -15.8981  -16.5561    8.4464 C   0  0  0  0  0  0  0  0  0  0  0  0
  -15.6627  -18.8668    7.8861 C   0  0  0  0  0  0  0  0  0  0  0  0
  -17.1744  -16.8733    8.9959 C   0  0  0  0  0  0  0  0  0  0  0  0
  -15.3519  -15.1601    8.4816 C   0  0  0  0  0  0  0  0  0  0  0  0
  -17.6502  -18.0740    9.1042 C   0  0  0  0  0  0  0  0  0  0  0  0
  -16.8325  -19.1282    8.4580 C   0  0  0  0  0  0  0  0  0  0  0  0
  -14.7210  -19.9762    7.3806 C   0  0  0  0  0  0  0  0  0  0  0  0
  -16.1561  -14.3168    7.3433 C   0  0  0  0  0  0  0  0  0  0  0  0
  -15.6856  -14.4810    9.8394 C   0  0  0  0  0  0  0  0  0  0  0  0
  -14.0456  -20.8938    8.4755 C   0  0  0  0  0  0  0  0  0  0  0  0
  -15.6953  -20.8319    6.4943 C   0  0  0  0  0  0  0  0  0  0  0  0
  1  2  1  0  0  0  0
  2  3  1  0  0  0  0
  2  4  1  0  0  0  0
  3  5  1  0  0  0  0
  3  6  1  0  0  0  0
  4  8  1  0  0  0  0
  4  9  1  0  0  0  0
  5  7  1  0  0  0  0
  6 10  1  0  0  0  0
  6 11  1  0  0  0  0
  7  8  1  0  0  0  0
  9 12  1  0  0  0  0
  9 13  1  0  0  0  0
M  END
>  <Score>
0.271527

>  <Energy>
-8.386236

>  <Confidence>
0.728473

>  <Binding_Affinity>
-9.069469

>  <IC50_nM>
224.6

$$$$
ml_pose_11
  PandaDock generated structure

 13 13  0  0  0  0  0  0  0  0999 V2000
  -14.6382  -19.3026    8.2842 O   0  0  0  0  0  0  0  0  0  0  0  0
  -15.3001  -18.1600    8.2192 C   0  0  0  0  0  0  0  0  0  0  0  0
  -15.9418  -17.7679    7.0354 C   0  0  0  0  0  0  0  0  0  0  0  0
  -15.7228  -17.4379    9.3638 C   0  0  0  0  0  0  0  0  0  0  0  0
  -16.5914  -16.6182    6.9869 C   0  0  0  0  0  0  0  0  0  0  0  0
  -15.7633  -18.6704    5.7661 C   0  0  0  0  0  0  0  0  0  0  0  0
  -16.8514  -15.8515    8.1694 C   0  0  0  0  0  0  0  0  0  0  0  0
  -16.3103  -16.2296    9.1358 C   0  0  0  0  0  0  0  0  0  0  0  0
  -14.9402  -17.8100   10.6519 C   0  0  0  0  0  0  0  0  0  0  0  0
  -16.9863  -19.5317    5.4625 C   0  0  0  0  0  0  0  0  0  0  0  0
  -15.3588  -17.7896    4.4944 C   0  0  0  0  0  0  0  0  0  0  0  0
  -13.7167  -16.9976   11.0136 C   0  0  0  0  0  0  0  0  0  0  0  0
  -15.9788  -17.9331   11.7569 C   0  0  0  0  0  0  0  0  0  0  0  0
  1  2  1  0  0  0  0
  2  3  1  0  0  0  0
  2  4  1  0  0  0  0
  3  5  1  0  0  0  0
  3  6  1  0  0  0  0
  4  8  1  0  0  0  0
  4  9  1  0  0  0  0
  5  7  1  0  0  0  0
  6 10  1  0  0  0  0
  6 11  1  0  0  0  0
  7  8  1  0  0  0  0
  9 12  1  0  0  0  0
  9 13  1  0  0  0  0
M  END
>  <Score>
0.297668

>  <Energy>
-5.003431

>  <Confidence>
0.702332

>  <Binding_Affinity>
-8.546638

>  <IC50_nM>
542.8

$$$$
ml_pose_28
  PandaDock generated structure

 13 13  0  0  0  0  0  0  0  0999 V2000
  -14.8025  -19.0820    7.0997 O   0  0  0  0  0  0  0  0  0  0  0  0
  -15.4453  -18.1074    7.8048 C   0  0  0  0  0  0  0  0  0  0  0  0
  -14.7230  -17.4517    8.8923 C   0  0  0  0  0  0  0  0  0  0  0  0
  -16.8069  -17.8612    7.6387 C   0  0  0  0  0  0  0  0  0  0  0  0
  -15.4033  -16.4917    9.6734 C   0  0  0  0  0  0  0  0  0  0  0  0
  -13.1720  -17.7737    9.0291 C   0  0  0  0  0  0  0  0  0  0  0  0
  -16.7279  -16.2298    9.3980 C   0  0  0  0  0  0  0  0  0  0  0  0
  -17.3653  -16.9007    8.4909 C   0  0  0  0  0  0  0  0  0  0  0  0
  -17.5129  -18.4633    6.5245 C   0  0  0  0  0  0  0  0  0  0  0  0
  -12.3721  -16.7658    8.4114 C   0  0  0  0  0  0  0  0  0  0  0  0
  -12.9927  -17.8792   10.5119 C   0  0  0  0  0  0  0  0  0  0  0  0
  -18.5125  -19.5659    7.1691 C   0  0  0  0  0  0  0  0  0  0  0  0
  -18.2636  -17.5278    5.6962 C   0  0  0  0  0  0  0  0  0  0  0  0
  1  2  1  0  0  0  0
  2  3  1  0  0  0  0
  2  4  1  0  0  0  0
  3  5  1  0  0  0  0
  3  6  1  0  0  0  0
  4  8  1  0  0  0  0
  4  9  1  0  0  0  0
  5  7  1  0  0  0  0
  6 10  1  0  0  0  0
  6 11  1  0  0  0  0
  7  8  1  0  0  0  0
  9 12  1  0  0  0  0
  9 13  1  0  0  0  0
M  END
>  <Score>
0.309183

>  <Energy>
-8.765568

>  <Confidence>
0.690817

>  <Binding_Affinity>
-8.316334

>  <IC50_nM>
800.7

$$$$
ml_pose_7
  PandaDock generated structure

 13 13  0  0  0  0  0  0  0  0999 V2000
  -15.9288  -19.2940    6.9135 O   0  0  0  0  0  0  0  0  0  0  0  0
  -15.7845  -18.0473    7.7678 C   0  0  0  0  0  0  0  0  0  0  0  0
  -16.8104  -17.2927    7.9874 C   0  0  0  0  0  0  0  0  0  0  0  0
  -14.6477  -17.9102    8.4600 C   0  0  0  0  0  0  0  0  0  0  0  0
  -16.6301  -16.1658    8.8325 C   0  0  0  0  0  0  0  0  0  0  0  0
  -18.1749  -17.5077    7.4358 C   0  0  0  0  0  0  0  0  0  0  0  0
  -15.4340  -16.0234    9.5092 C   0  0  0  0  0  0  0  0  0  0  0  0
  -14.4016  -16.8721    9.3500 C   0  0  0  0  0  0  0  0  0  0  0  0
  -13.3742  -18.9332    8.1339 C   0  0  0  0  0  0  0  0  0  0  0  0
  -19.1269  -18.1112    8.2090 C   0  0  0  0  0  0  0  0  0  0  0  0
  -18.6813  -16.1869    6.7271 C   0  0  0  0  0  0  0  0  0  0  0  0
  -12.3108  -18.2763    7.4259 C   0  0  0  0  0  0  0  0  0  0  0  0
  -12.7948  -19.4791    9.5880 C   0  0  0  0  0  0  0  0  0  0  0  0
  1  2  1  0  0  0  0
  2  3  1  0  0  0  0
  2  4  1  0  0  0  0
  3  5  1  0  0  0  0
  3  6  1  0  0  0  0
  4  8  1  0  0  0  0
  4  9  1  0  0  0  0
  5  7  1  0  0  0  0
  6 10  1  0  0  0  0
  6 11  1  0  0  0  0
  7  8  1  0  0  0  0
  9 12  1  0  0  0  0
  9 13  1  0  0  0  0
M  END
>  <Score>
0.311334

>  <Energy>
-6.076562

>  <Confidence>
0.688666

>  <Binding_Affinity>
-8.273319

>  <IC50_nM>
861.0

$$$$
ml_pose_10
  PandaDock generated structure

 13 13  0  0  0  0  0  0  0  0999 V2000
  -14.3215  -16.2144    8.1225 O   0  0  0  0  0  0  0  0  0  0  0  0
  -15.2199  -17.2143    8.2171 C   0  0  0  0  0  0  0  0  0  0  0  0
  -15.9676  -17.5856    9.3201 C   0  0  0  0  0  0  0  0  0  0  0  0
  -15.6501  -17.8863    6.9770 C   0  0  0  0  0  0  0  0  0  0  0  0
  -16.8209  -18.6508    9.4265 C   0  0  0  0  0  0  0  0  0  0  0  0
  -15.5799  -16.8470   10.6174 C   0  0  0  0  0  0  0  0  0  0  0  0
  -17.2222  -19.3396    8.2821 C   0  0  0  0  0  0  0  0  0  0  0  0
  -16.5310  -19.0617    7.0907 C   0  0  0  0  0  0  0  0  0  0  0  0
  -14.9648  -17.6449    5.6913 C   0  0  0  0  0  0  0  0  0  0  0  0
  -16.5894  -15.7745   10.9644 C   0  0  0  0  0  0  0  0  0  0  0  0
  -15.3039  -17.7401   11.7483 C   0  0  0  0  0  0  0  0  0  0  0  0
  -13.8614  -18.7291    5.2454 C   0  0  0  0  0  0  0  0  0  0  0  0
  -16.0675  -17.4117    4.6371 C   0  0  0  0  0  0  0  0  0  0  0  0
  1  2  1  0  0  0  0
  2  3  1  0  0  0  0
  2  4  1  0  0  0  0
  3  5  1  0  0  0  0
  3  6  1  0  0  0  0
  4  8  1  0  0  0  0
  4  9  1  0  0  0  0
  5  7  1  0  0  0  0
  6 10  1  0  0  0  0
  6 11  1  0  0  0  0
  7  8  1  0  0  0  0
  9 12  1  0  0  0  0
  9 13  1  0  0  0  0
M  END
>  <Score>
0.328180

>  <Energy>
-5.091215

>  <Confidence>
0.671820

>  <Binding_Affinity>
-7.936404

>  <IC50_nM>
1520.5

$$$$
