ml_pose_28
  PandaDock generated structure

 13 13  0  0  0  0  0  0  0  0999 V2000
  -14.8025  -19.0820    7.0997 O   0  0  0  0  0  0  0  0  0  0  0  0
  -15.4453  -18.1074    7.8048 C   0  0  0  0  0  0  0  0  0  0  0  0
  -14.7230  -17.4517    8.8923 C   0  0  0  0  0  0  0  0  0  0  0  0
  -16.8069  -17.8612    7.6387 C   0  0  0  0  0  0  0  0  0  0  0  0
  -15.4033  -16.4917    9.6734 C   0  0  0  0  0  0  0  0  0  0  0  0
  -13.1720  -17.7737    9.0291 C   0  0  0  0  0  0  0  0  0  0  0  0
  -16.7279  -16.2298    9.3980 C   0  0  0  0  0  0  0  0  0  0  0  0
  -17.3653  -16.9007    8.4909 C   0  0  0  0  0  0  0  0  0  0  0  0
  -17.5129  -18.4633    6.5245 C   0  0  0  0  0  0  0  0  0  0  0  0
  -12.3721  -16.7658    8.4114 C   0  0  0  0  0  0  0  0  0  0  0  0
  -12.9927  -17.8792   10.5119 C   0  0  0  0  0  0  0  0  0  0  0  0
  -18.5125  -19.5659    7.1691 C   0  0  0  0  0  0  0  0  0  0  0  0
  -18.2636  -17.5278    5.6962 C   0  0  0  0  0  0  0  0  0  0  0  0
  1  2  1  0  0  0  0
  2  3  1  0  0  0  0
  2  4  1  0  0  0  0
  3  5  1  0  0  0  0
  3  6  1  0  0  0  0
  4  8  1  0  0  0  0
  4  9  1  0  0  0  0
  5  7  1  0  0  0  0
  6 10  1  0  0  0  0
  6 11  1  0  0  0  0
  7  8  1  0  0  0  0
  9 12  1  0  0  0  0
  9 13  1  0  0  0  0
M  END
>  <Score>
0.309183

>  <Energy>
-8.765568

>  <Confidence>
0.690817

>  <Binding_Affinity>
-8.316334

>  <IC50_nM>
800.7

$$$$
