ml_pose_4
  PandaDock generated structure

 13 13  0  0  0  0  0  0  0  0999 V2000
  -17.3720  -18.4917    7.5212 O   0  0  0  0  0  0  0  0  0  0  0  0
  -16.2051  -17.9286    7.9814 C   0  0  0  0  0  0  0  0  0  0  0  0
  -15.2081  -17.9283    7.1099 C   0  0  0  0  0  0  0  0  0  0  0  0
  -16.2355  -17.4481    9.2147 C   0  0  0  0  0  0  0  0  0  0  0  0
  -13.8445  -17.4501    7.5997 C   0  0  0  0  0  0  0  0  0  0  0  0
  -15.1557  -18.4997    5.7393 C   0  0  0  0  0  0  0  0  0  0  0  0
  -13.8030  -16.9193    8.9284 C   0  0  0  0  0  0  0  0  0  0  0  0
  -14.8947  -16.9102    9.7429 C   0  0  0  0  0  0  0  0  0  0  0  0
  -17.2991  -17.3642   10.2730 C   0  0  0  0  0  0  0  0  0  0  0  0
  -15.2752  -17.3285    4.8036 C   0  0  0  0  0  0  0  0  0  0  0  0
  -13.9933  -19.3566    5.4035 C   0  0  0  0  0  0  0  0  0  0  0  0
  -17.2639  -18.4192   11.2418 C   0  0  0  0  0  0  0  0  0  0  0  0
  -17.5498  -16.0556   10.7805 C   0  0  0  0  0  0  0  0  0  0  0  0
  1  2  1  0  0  0  0
  2  3  1  0  0  0  0
  2  4  1  0  0  0  0
  3  5  1  0  0  0  0
  3  6  1  0  0  0  0
  4  8  1  0  0  0  0
  4  9  1  0  0  0  0
  5  7  1  0  0  0  0
  6 10  1  0  0  0  0
  6 11  1  0  0  0  0
  7  8  1  0  0  0  0
  9 12  1  0  0  0  0
  9 13  1  0  0  0  0
M  END
>  <Score>
0.238869

>  <Energy>
-4.910758

>  <Confidence>
0.761131

>  <Binding_Affinity>
-9.722617

>  <IC50_nM>
74.6

$$$$
