ml_pose_9
  PandaDock generated structure

 13 13  0  0  0  0  0  0  0  0999 V2000
  -14.2083  -16.5240    8.7993 O   0  0  0  0  0  0  0  0  0  0  0  0
  -15.2984  -17.2947    8.3285 C   0  0  0  0  0  0  0  0  0  0  0  0
  -15.2490  -18.5682    8.9442 C   0  0  0  0  0  0  0  0  0  0  0  0
  -16.3150  -16.9623    7.5001 C   0  0  0  0  0  0  0  0  0  0  0  0
  -16.2690  -19.5697    8.5173 C   0  0  0  0  0  0  0  0  0  0  0  0
  -14.1565  -19.1232    9.7639 C   0  0  0  0  0  0  0  0  0  0  0  0
  -17.2719  -18.9838    7.5232 C   0  0  0  0  0  0  0  0  0  0  0  0
  -17.2610  -17.7975    7.0725 C   0  0  0  0  0  0  0  0  0  0  0  0
  -16.3315  -15.4619    6.7861 C   0  0  0  0  0  0  0  0  0  0  0  0
  -14.6980  -19.1050   11.2650 C   0  0  0  0  0  0  0  0  0  0  0  0
  -13.6856  -20.4864    9.4097 C   0  0  0  0  0  0  0  0  0  0  0  0
  -15.7800  -15.3821    5.3900 C   0  0  0  0  0  0  0  0  0  0  0  0
  -17.5759  -14.8413    7.0403 C   0  0  0  0  0  0  0  0  0  0  0  0
  1  2  1  0  0  0  0
  2  3  1  0  0  0  0
  2  4  1  0  0  0  0
  3  5  1  0  0  0  0
  3  6  1  0  0  0  0
  4  8  1  0  0  0  0
  4  9  1  0  0  0  0
  5  7  1  0  0  0  0
  6 10  1  0  0  0  0
  6 11  1  0  0  0  0
  7  8  1  0  0  0  0
  9 12  1  0  0  0  0
  9 13  1  0  0  0  0
M  END
>  <Score>
0.139862

>  <Energy>
-5.985460

>  <Confidence>
0.860138

>  <Binding_Affinity>
-11.702755

>  <IC50_nM>
2.6

$$$$
