ml_pose_20
  PandaDock generated structure

 13 13  0  0  0  0  0  0  0  0999 V2000
  -15.5852  -15.9598    9.1361 O   0  0  0  0  0  0  0  0  0  0  0  0
  -15.7586  -17.1857    8.5776 C   0  0  0  0  0  0  0  0  0  0  0  0
  -15.8040  -17.2544    7.1147 C   0  0  0  0  0  0  0  0  0  0  0  0
  -15.5359  -18.4388    9.1175 C   0  0  0  0  0  0  0  0  0  0  0  0
  -15.7376  -18.4563    6.4718 C   0  0  0  0  0  0  0  0  0  0  0  0
  -15.9040  -15.9550    6.2111 C   0  0  0  0  0  0  0  0  0  0  0  0
  -15.7536  -19.5380    7.1543 C   0  0  0  0  0  0  0  0  0  0  0  0
  -15.5682  -19.4719    8.4838 C   0  0  0  0  0  0  0  0  0  0  0  0
  -15.5419  -18.4002   10.7350 C   0  0  0  0  0  0  0  0  0  0  0  0
  -14.6180  -15.4572    5.6891 C   0  0  0  0  0  0  0  0  0  0  0  0
  -17.0268  -16.0106    5.1742 C   0  0  0  0  0  0  0  0  0  0  0  0
  -16.9261  -18.8472   11.2677 C   0  0  0  0  0  0  0  0  0  0  0  0
  -14.3401  -19.1250   11.2070 C   0  0  0  0  0  0  0  0  0  0  0  0
  1  2  1  0  0  0  0
  2  3  1  0  0  0  0
  2  4  1  0  0  0  0
  3  5  1  0  0  0  0
  3  6  1  0  0  0  0
  4  8  1  0  0  0  0
  4  9  1  0  0  0  0
  5  7  1  0  0  0  0
  6 10  1  0  0  0  0
  6 11  1  0  0  0  0
  7  8  1  0  0  0  0
  9 12  1  0  0  0  0
  9 13  1  0  0  0  0
M  END
>  <Score>
0.197152

>  <Energy>
-6.510939

>  <Confidence>
0.802848

>  <Binding_Affinity>
-10.556969

>  <IC50_nM>
18.2

$$$$
