ml_pose_7
  PandaDock generated structure

 13 13  0  0  0  0  0  0  0  0999 V2000
  -15.9288  -19.2940    6.9135 O   0  0  0  0  0  0  0  0  0  0  0  0
  -15.7845  -18.0473    7.7678 C   0  0  0  0  0  0  0  0  0  0  0  0
  -16.8104  -17.2927    7.9874 C   0  0  0  0  0  0  0  0  0  0  0  0
  -14.6477  -17.9102    8.4600 C   0  0  0  0  0  0  0  0  0  0  0  0
  -16.6301  -16.1658    8.8325 C   0  0  0  0  0  0  0  0  0  0  0  0
  -18.1749  -17.5077    7.4358 C   0  0  0  0  0  0  0  0  0  0  0  0
  -15.4340  -16.0234    9.5092 C   0  0  0  0  0  0  0  0  0  0  0  0
  -14.4016  -16.8721    9.3500 C   0  0  0  0  0  0  0  0  0  0  0  0
  -13.3742  -18.9332    8.1339 C   0  0  0  0  0  0  0  0  0  0  0  0
  -19.1269  -18.1112    8.2090 C   0  0  0  0  0  0  0  0  0  0  0  0
  -18.6813  -16.1869    6.7271 C   0  0  0  0  0  0  0  0  0  0  0  0
  -12.3108  -18.2763    7.4259 C   0  0  0  0  0  0  0  0  0  0  0  0
  -12.7948  -19.4791    9.5880 C   0  0  0  0  0  0  0  0  0  0  0  0
  1  2  1  0  0  0  0
  2  3  1  0  0  0  0
  2  4  1  0  0  0  0
  3  5  1  0  0  0  0
  3  6  1  0  0  0  0
  4  8  1  0  0  0  0
  4  9  1  0  0  0  0
  5  7  1  0  0  0  0
  6 10  1  0  0  0  0
  6 11  1  0  0  0  0
  7  8  1  0  0  0  0
  9 12  1  0  0  0  0
  9 13  1  0  0  0  0
M  END
>  <Score>
0.311334

>  <Energy>
-6.076562

>  <Confidence>
0.688666

>  <Binding_Affinity>
-8.273319

>  <IC50_nM>
861.0

$$$$
