ml_pose_23
  PandaDock generated structure

 13 13  0  0  0  0  0  0  0  0999 V2000
  -17.0218  -19.2404    7.5807 O   0  0  0  0  0  0  0  0  0  0  0  0
  -16.0348  -18.0902    7.9906 C   0  0  0  0  0  0  0  0  0  0  0  0
  -14.7901  -18.4704    8.3936 C   0  0  0  0  0  0  0  0  0  0  0  0
  -16.3864  -16.8701    7.9315 C   0  0  0  0  0  0  0  0  0  0  0  0
  -13.9532  -17.4011    8.8176 C   0  0  0  0  0  0  0  0  0  0  0  0
  -14.2708  -19.8655    8.5695 C   0  0  0  0  0  0  0  0  0  0  0  0
  -14.3581  -16.0869    8.8516 C   0  0  0  0  0  0  0  0  0  0  0  0
  -15.6255  -15.8164    8.4518 C   0  0  0  0  0  0  0  0  0  0  0  0
  -17.9058  -16.4618    7.5520 C   0  0  0  0  0  0  0  0  0  0  0  0
  -13.4609  -20.1813    7.2351 C   0  0  0  0  0  0  0  0  0  0  0  0
  -13.5421  -20.0935    9.7651 C   0  0  0  0  0  0  0  0  0  0  0  0
  -18.8186  -16.0656    8.7346 C   0  0  0  0  0  0  0  0  0  0  0  0
  -17.9319  -15.4569    6.4665 C   0  0  0  0  0  0  0  0  0  0  0  0
  1  2  1  0  0  0  0
  2  3  1  0  0  0  0
  2  4  1  0  0  0  0
  3  5  1  0  0  0  0
  3  6  1  0  0  0  0
  4  8  1  0  0  0  0
  4  9  1  0  0  0  0
  5  7  1  0  0  0  0
  6 10  1  0  0  0  0
  6 11  1  0  0  0  0
  7  8  1  0  0  0  0
  9 12  1  0  0  0  0
  9 13  1  0  0  0  0
M  END
>  <Score>
-2.947008

>  <Energy>
-6.158045

>  <Confidence>
0.851512

>  <Binding_Affinity>
-10.827227

>  <IC50_nM>
11.6

$$$$
ml_pose_28
  PandaDock generated structure

 13 13  0  0  0  0  0  0  0  0999 V2000
  -14.6971  -17.3327    6.4921 O   0  0  0  0  0  0  0  0  0  0  0  0
  -15.2995  -17.5373    7.6596 C   0  0  0  0  0  0  0  0  0  0  0  0
  -14.7353  -18.1592    8.7959 C   0  0  0  0  0  0  0  0  0  0  0  0
  -16.7400  -17.2547    7.6875 C   0  0  0  0  0  0  0  0  0  0  0  0
  -15.5519  -18.4240    9.9210 C   0  0  0  0  0  0  0  0  0  0  0  0
  -13.2443  -18.4310    8.8225 C   0  0  0  0  0  0  0  0  0  0  0  0
  -16.8790  -18.1510    9.9770 C   0  0  0  0  0  0  0  0  0  0  0  0
  -17.4856  -17.6661    8.9268 C   0  0  0  0  0  0  0  0  0  0  0  0
  -17.4616  -16.7637    6.4713 C   0  0  0  0  0  0  0  0  0  0  0  0
  -12.5575  -17.2090    9.5131 C   0  0  0  0  0  0  0  0  0  0  0  0
  -12.9805  -19.7542    9.3909 C   0  0  0  0  0  0  0  0  0  0  0  0
  -18.2670  -17.8304    5.7852 C   0  0  0  0  0  0  0  0  0  0  0  0
  -18.2007  -15.5867    6.8971 C   0  0  0  0  0  0  0  0  0  0  0  0
  1  2  1  0  0  0  0
  2  3  1  0  0  0  0
  2  4  1  0  0  0  0
  3  5  1  0  0  0  0
  3  6  1  0  0  0  0
  4  8  1  0  0  0  0
  4  9  1  0  0  0  0
  5  7  1  0  0  0  0
  6 10  1  0  0  0  0
  6 11  1  0  0  0  0
  7  8  1  0  0  0  0
  9 12  1  0  0  0  0
  9 13  1  0  0  0  0
M  END
>  <Score>
-2.744459

>  <Energy>
-9.113374

>  <Confidence>
0.827503

>  <Binding_Affinity>
-10.404470

>  <IC50_nM>
23.6

$$$$
ml_pose_4
  PandaDock generated structure

 13 13  0  0  0  0  0  0  0  0999 V2000
  -16.6935  -16.3569    7.2273 O   0  0  0  0  0  0  0  0  0  0  0  0
  -16.0374  -17.3927    7.8662 C   0  0  0  0  0  0  0  0  0  0  0  0
  -14.6204  -17.5888    7.5355 C   0  0  0  0  0  0  0  0  0  0  0  0
  -16.5817  -17.8727    8.9531 C   0  0  0  0  0  0  0  0  0  0  0  0
  -14.0649  -18.6158    8.2018 C   0  0  0  0  0  0  0  0  0  0  0  0
  -14.0379  -16.8230    6.3808 C   0  0  0  0  0  0  0  0  0  0  0  0
  -14.6305  -19.2108    9.3092 C   0  0  0  0  0  0  0  0  0  0  0  0
  -15.9716  -18.8817    9.6222 C   0  0  0  0  0  0  0  0  0  0  0  0
  -18.0150  -17.6505    9.2836 C   0  0  0  0  0  0  0  0  0  0  0  0
  -13.0669  -15.7559    6.8318 C   0  0  0  0  0  0  0  0  0  0  0  0
  -13.3087  -17.8518    5.5007 C   0  0  0  0  0  0  0  0  0  0  0  0
  -19.0010  -18.7495    8.8297 C   0  0  0  0  0  0  0  0  0  0  0  0
  -18.0705  -17.3499   10.7981 C   0  0  0  0  0  0  0  0  0  0  0  0
  1  2  1  0  0  0  0
  2  3  1  0  0  0  0
  2  4  1  0  0  0  0
  3  5  1  0  0  0  0
  3  6  1  0  0  0  0
  4  8  1  0  0  0  0
  4  9  1  0  0  0  0
  5  7  1  0  0  0  0
  6 10  1  0  0  0  0
  6 11  1  0  0  0  0
  7  8  1  0  0  0  0
  9 12  1  0  0  0  0
  9 13  1  0  0  0  0
M  END
>  <Score>
-2.395753

>  <Energy>
-6.193562

>  <Confidence>
0.615571

>  <Binding_Affinity>
-8.575941

>  <IC50_nM>
516.6

$$$$
ml_pose_16
  PandaDock generated structure

 13 13  0  0  0  0  0  0  0  0999 V2000
  -17.5254  -17.0906    8.6945 O   0  0  0  0  0  0  0  0  0  0  0  0
  -16.2667  -17.6295    8.2896 C   0  0  0  0  0  0  0  0  0  0  0  0
  -15.7831  -17.3849    7.0626 C   0  0  0  0  0  0  0  0  0  0  0  0
  -15.3922  -18.1869    9.2664 C   0  0  0  0  0  0  0  0  0  0  0  0
  -14.4916  -17.7474    6.7181 C   0  0  0  0  0  0  0  0  0  0  0  0
  -16.6590  -16.6779    5.9678 C   0  0  0  0  0  0  0  0  0  0  0  0
  -13.7014  -18.3857    7.6544 C   0  0  0  0  0  0  0  0  0  0  0  0
  -14.1283  -18.6156    8.8642 C   0  0  0  0  0  0  0  0  0  0  0  0
  -15.9552  -18.3717   10.6987 C   0  0  0  0  0  0  0  0  0  0  0  0
  -16.3017  -15.2154    5.8299 C   0  0  0  0  0  0  0  0  0  0  0  0
  -16.6056  -17.2953    4.6777 C   0  0  0  0  0  0  0  0  0  0  0  0
  -16.2715  -19.7726   10.9690 C   0  0  0  0  0  0  0  0  0  0  0  0
  -15.0184  -17.7266   11.6471 C   0  0  0  0  0  0  0  0  0  0  0  0
  1  2  1  0  0  0  0
  2  3  1  0  0  0  0
  2  4  1  0  0  0  0
  3  5  1  0  0  0  0
  3  6  1  0  0  0  0
  4  8  1  0  0  0  0
  4  9  1  0  0  0  0
  5  7  1  0  0  0  0
  6 10  1  0  0  0  0
  6 11  1  0  0  0  0
  7  8  1  0  0  0  0
  9 12  1  0  0  0  0
  9 13  1  0  0  0  0
M  END
>  <Score>
-2.271232

>  <Energy>
-9.306037

>  <Confidence>
0.770916

>  <Binding_Affinity>
-8.384521

>  <IC50_nM>
713.6

$$$$
ml_pose_5
  PandaDock generated structure

 13 13  0  0  0  0  0  0  0  0999 V2000
  -17.5071  -18.5506    8.3333 O   0  0  0  0  0  0  0  0  0  0  0  0
  -16.2718  -17.9479    8.1997 C   0  0  0  0  0  0  0  0  0  0  0  0
  -15.8396  -16.8270    9.1673 C   0  0  0  0  0  0  0  0  0  0  0  0
  -15.3372  -18.4775    7.2820 C   0  0  0  0  0  0  0  0  0  0  0  0
  -14.6846  -16.2808    8.9378 C   0  0  0  0  0  0  0  0  0  0  0  0
  -16.7746  -16.3056   10.0707 C   0  0  0  0  0  0  0  0  0  0  0  0
  -13.7583  -16.7417    7.9974 C   0  0  0  0  0  0  0  0  0  0  0  0
  -14.1124  -17.8112    7.1172 C   0  0  0  0  0  0  0  0  0  0  0  0
  -15.8153  -19.6003    6.4106 C   0  0  0  0  0  0  0  0  0  0  0  0
  -16.4811  -16.8592   11.5234 C   0  0  0  0  0  0  0  0  0  0  0  0
  -16.9758  -14.8612    9.9645 C   0  0  0  0  0  0  0  0  0  0  0  0
  -15.9764  -19.1604    4.9974 C   0  0  0  0  0  0  0  0  0  0  0  0
  -14.5656  -20.6766    6.3386 C   0  0  0  0  0  0  0  0  0  0  0  0
  1  2  1  0  0  0  0
  2  3  1  0  0  0  0
  2  4  1  0  0  0  0
  3  5  1  0  0  0  0
  3  6  1  0  0  0  0
  4  8  1  0  0  0  0
  4  9  1  0  0  0  0
  5  7  1  0  0  0  0
  6 10  1  0  0  0  0
  6 11  1  0  0  0  0
  7  8  1  0  0  0  0
  9 12  1  0  0  0  0
  9 13  1  0  0  0  0
M  END
>  <Score>
-2.225561

>  <Energy>
-6.011965

>  <Confidence>
0.827194

>  <Binding_Affinity>
-7.632444

>  <IC50_nM>
2539.8

$$$$
ml_pose_24
  PandaDock generated structure

 13 13  0  0  0  0  0  0  0  0999 V2000
  -15.3455  -19.5570    7.4952 O   0  0  0  0  0  0  0  0  0  0  0  0
  -15.5084  -18.2509    8.0131 C   0  0  0  0  0  0  0  0  0  0  0  0
  -14.9717  -17.1547    7.4309 C   0  0  0  0  0  0  0  0  0  0  0  0
  -16.4563  -18.0841    8.9511 C   0  0  0  0  0  0  0  0  0  0  0  0
  -15.2165  -15.9602    7.9072 C   0  0  0  0  0  0  0  0  0  0  0  0
  -13.9083  -17.3105    6.3853 C   0  0  0  0  0  0  0  0  0  0  0  0
  -16.0252  -15.5843    8.9097 C   0  0  0  0  0  0  0  0  0  0  0  0
  -16.7685  -16.7222    9.4427 C   0  0  0  0  0  0  0  0  0  0  0  0
  -17.2698  -19.2757    9.5946 C   0  0  0  0  0  0  0  0  0  0  0  0
  -14.4862  -17.1055    5.0011 C   0  0  0  0  0  0  0  0  0  0  0  0
  -12.6720  -16.5177    6.5518 C   0  0  0  0  0  0  0  0  0  0  0  0
  -16.7439  -19.6216   11.0366 C   0  0  0  0  0  0  0  0  0  0  0  0
  -18.7279  -18.9557    9.6208 C   0  0  0  0  0  0  0  0  0  0  0  0
  1  2  1  0  0  0  0
  2  3  1  0  0  0  0
  2  4  1  0  0  0  0
  3  5  1  0  0  0  0
  3  6  1  0  0  0  0
  4  8  1  0  0  0  0
  4  9  1  0  0  0  0
  5  7  1  0  0  0  0
  6 10  1  0  0  0  0
  6 11  1  0  0  0  0
  7  8  1  0  0  0  0
  9 12  1  0  0  0  0
  9 13  1  0  0  0  0
M  END
>  <Score>
-2.040595

>  <Energy>
-5.589953

>  <Confidence>
0.891122

>  <Binding_Affinity>
-6.700222

>  <IC50_nM>
12251.8

$$$$
ml_pose_11
  PandaDock generated structure

 13 13  0  0  0  0  0  0  0  0999 V2000
  -16.5929  -18.0077    6.4588 O   0  0  0  0  0  0  0  0  0  0  0  0
  -15.8828  -17.7965    7.6812 C   0  0  0  0  0  0  0  0  0  0  0  0
  -16.5363  -17.0295    8.5937 C   0  0  0  0  0  0  0  0  0  0  0  0
  -14.8905  -18.3507    8.0408 C   0  0  0  0  0  0  0  0  0  0  0  0
  -15.8958  -16.6751    9.6840 C   0  0  0  0  0  0  0  0  0  0  0  0
  -17.8945  -16.2531    8.2015 C   0  0  0  0  0  0  0  0  0  0  0  0
  -14.7065  -17.2947   10.1390 C   0  0  0  0  0  0  0  0  0  0  0  0
  -14.1970  -18.2040    9.1449 C   0  0  0  0  0  0  0  0  0  0  0  0
  -14.0428  -19.4086    7.0471 C   0  0  0  0  0  0  0  0  0  0  0  0
  -19.0937  -16.9233    8.8870 C   0  0  0  0  0  0  0  0  0  0  0  0
  -17.6751  -14.6986    8.5640 C   0  0  0  0  0  0  0  0  0  0  0  0
  -12.8623  -18.7171    6.2416 C   0  0  0  0  0  0  0  0  0  0  0  0
  -13.8297  -20.7410    7.6563 C   0  0  0  0  0  0  0  0  0  0  0  0
  1  2  1  0  0  0  0
  2  3  1  0  0  0  0
  2  4  1  0  0  0  0
  3  5  1  0  0  0  0
  3  6  1  0  0  0  0
  4  8  1  0  0  0  0
  4  9  1  0  0  0  0
  5  7  1  0  0  0  0
  6 10  1  0  0  0  0
  6 11  1  0  0  0  0
  7  8  1  0  0  0  0
  9 12  1  0  0  0  0
  9 13  1  0  0  0  0
M  END
>  <Score>
-2.030140

>  <Energy>
-5.117627

>  <Confidence>
0.733868

>  <Binding_Affinity>
-6.702278

>  <IC50_nM>
12209.3

$$$$
ml_pose_12
  PandaDock generated structure

 13 13  0  0  0  0  0  0  0  0999 V2000
  -14.2565  -18.8798    8.8450 O   0  0  0  0  0  0  0  0  0  0  0  0
  -15.2245  -17.9535    8.4064 C   0  0  0  0  0  0  0  0  0  0  0  0
  -15.0776  -16.5770    8.2890 C   0  0  0  0  0  0  0  0  0  0  0  0
  -16.4169  -18.5685    7.9651 C   0  0  0  0  0  0  0  0  0  0  0  0
  -16.1140  -15.9125    7.9382 C   0  0  0  0  0  0  0  0  0  0  0  0
  -13.8069  -16.1339    8.7959 C   0  0  0  0  0  0  0  0  0  0  0  0
  -17.1802  -16.4610    7.4882 C   0  0  0  0  0  0  0  0  0  0  0  0
  -17.4779  -17.7403    7.4983 C   0  0  0  0  0  0  0  0  0  0  0  0
  -16.7512  -20.0626    8.0170 C   0  0  0  0  0  0  0  0  0  0  0  0
  -12.9484  -15.7809    7.5296 C   0  0  0  0  0  0  0  0  0  0  0  0
  -14.0150  -14.8460    9.5997 C   0  0  0  0  0  0  0  0  0  0  0  0
  -17.6470  -20.5561    9.1893 C   0  0  0  0  0  0  0  0  0  0  0  0
  -17.1838  -20.6279    6.7783 C   0  0  0  0  0  0  0  0  0  0  0  0
  1  2  1  0  0  0  0
  2  3  1  0  0  0  0
  2  4  1  0  0  0  0
  3  5  1  0  0  0  0
  3  6  1  0  0  0  0
  4  8  1  0  0  0  0
  4  9  1  0  0  0  0
  5  7  1  0  0  0  0
  6 10  1  0  0  0  0
  6 11  1  0  0  0  0
  7  8  1  0  0  0  0
  9 12  1  0  0  0  0
  9 13  1  0  0  0  0
M  END
>  <Score>
-2.000466

>  <Energy>
-6.453731

>  <Confidence>
0.641365

>  <Binding_Affinity>
-6.847737

>  <IC50_nM>
9551.2

$$$$
ml_pose_21
  PandaDock generated structure

 13 13  0  0  0  0  0  0  0  0999 V2000
  -16.8074  -15.9389    8.3138 O   0  0  0  0  0  0  0  0  0  0  0  0
  -15.9319  -17.1937    8.1769 C   0  0  0  0  0  0  0  0  0  0  0  0
  -16.6546  -18.3845    7.7573 C   0  0  0  0  0  0  0  0  0  0  0  0
  -14.7285  -17.1972    8.5795 C   0  0  0  0  0  0  0  0  0  0  0  0
  -15.8363  -19.4880    7.7946 C   0  0  0  0  0  0  0  0  0  0  0  0
  -18.0693  -18.3202    7.3642 C   0  0  0  0  0  0  0  0  0  0  0  0
  -14.5394  -19.5867    8.1343 C   0  0  0  0  0  0  0  0  0  0  0  0
  -13.9840  -18.4541    8.6446 C   0  0  0  0  0  0  0  0  0  0  0  0
  -14.0128  -15.9808    8.9831 C   0  0  0  0  0  0  0  0  0  0  0  0
  -18.2371  -18.4094    5.8261 C   0  0  0  0  0  0  0  0  0  0  0  0
  -18.8657  -19.5836    8.0160 C   0  0  0  0  0  0  0  0  0  0  0  0
  -13.6779  -15.8904   10.4619 C   0  0  0  0  0  0  0  0  0  0  0  0
  -12.7550  -15.6724    8.2876 C   0  0  0  0  0  0  0  0  0  0  0  0
  1  2  1  0  0  0  0
  2  3  1  0  0  0  0
  2  4  1  0  0  0  0
  3  5  1  0  0  0  0
  3  6  1  0  0  0  0
  4  8  1  0  0  0  0
  4  9  1  0  0  0  0
  5  7  1  0  0  0  0
  6 10  1  0  0  0  0
  6 11  1  0  0  0  0
  7  8  1  0  0  0  0
  9 12  1  0  0  0  0
  9 13  1  0  0  0  0
M  END
>  <Score>
-1.936027

>  <Energy>
-5.772823

>  <Confidence>
0.754927

>  <Binding_Affinity>
-6.370611

>  <IC50_nM>
21371.2

$$$$
ml_pose_20
  PandaDock generated structure

 13 13  0  0  0  0  0  0  0  0999 V2000
  -14.6351  -17.4014    9.7568 O   0  0  0  0  0  0  0  0  0  0  0  0
  -15.3177  -17.6027    8.5351 C   0  0  0  0  0  0  0  0  0  0  0  0
  -16.3865  -16.6825    8.4015 C   0  0  0  0  0  0  0  0  0  0  0  0
  -15.1100  -18.6985    7.9761 C   0  0  0  0  0  0  0  0  0  0  0  0
  -17.1956  -16.9962    7.2596 C   0  0  0  0  0  0  0  0  0  0  0  0
  -16.5475  -15.4664    9.1402 C   0  0  0  0  0  0  0  0  0  0  0  0
  -16.9867  -18.1018    6.3413 C   0  0  0  0  0  0  0  0  0  0  0  0
  -15.9650  -19.0330    6.7820 C   0  0  0  0  0  0  0  0  0  0  0  0
  -14.0967  -19.7748    8.1674 C   0  0  0  0  0  0  0  0  0  0  0  0
  -15.9779  -14.2099    8.6249 C   0  0  0  0  0  0  0  0  0  0  0  0
  -18.0847  -15.2497    9.4684 C   0  0  0  0  0  0  0  0  0  0  0  0
  -14.5496  -20.8940    8.8563 C   0  0  0  0  0  0  0  0  0  0  0  0
  -13.2470  -19.9891    7.0304 C   0  0  0  0  0  0  0  0  0  0  0  0
  1  2  1  0  0  0  0
  2  3  1  0  0  0  0
  2  4  1  0  0  0  0
  3  5  1  0  0  0  0
  3  6  1  0  0  0  0
  4  8  1  0  0  0  0
  4  9  1  0  0  0  0
  5  7  1  0  0  0  0
  6 10  1  0  0  0  0
  6 11  1  0  0  0  0
  7  8  1  0  0  0  0
  9 12  1  0  0  0  0
  9 13  1  0  0  0  0
M  END
>  <Score>
-1.841490

>  <Energy>
-7.376326

>  <Confidence>
0.811681

>  <Binding_Affinity>
-6.155499

>  <IC50_nM>
30727.3

$$$$
