ml_pose_21
  PandaDock generated structure

 13 13  0  0  0  0  0  0  0  0999 V2000
  -16.8074  -15.9389    8.3138 O   0  0  0  0  0  0  0  0  0  0  0  0
  -15.9319  -17.1937    8.1769 C   0  0  0  0  0  0  0  0  0  0  0  0
  -16.6546  -18.3845    7.7573 C   0  0  0  0  0  0  0  0  0  0  0  0
  -14.7285  -17.1972    8.5795 C   0  0  0  0  0  0  0  0  0  0  0  0
  -15.8363  -19.4880    7.7946 C   0  0  0  0  0  0  0  0  0  0  0  0
  -18.0693  -18.3202    7.3642 C   0  0  0  0  0  0  0  0  0  0  0  0
  -14.5394  -19.5867    8.1343 C   0  0  0  0  0  0  0  0  0  0  0  0
  -13.9840  -18.4541    8.6446 C   0  0  0  0  0  0  0  0  0  0  0  0
  -14.0128  -15.9808    8.9831 C   0  0  0  0  0  0  0  0  0  0  0  0
  -18.2371  -18.4094    5.8261 C   0  0  0  0  0  0  0  0  0  0  0  0
  -18.8657  -19.5836    8.0160 C   0  0  0  0  0  0  0  0  0  0  0  0
  -13.6779  -15.8904   10.4619 C   0  0  0  0  0  0  0  0  0  0  0  0
  -12.7550  -15.6724    8.2876 C   0  0  0  0  0  0  0  0  0  0  0  0
  1  2  1  0  0  0  0
  2  3  1  0  0  0  0
  2  4  1  0  0  0  0
  3  5  1  0  0  0  0
  3  6  1  0  0  0  0
  4  8  1  0  0  0  0
  4  9  1  0  0  0  0
  5  7  1  0  0  0  0
  6 10  1  0  0  0  0
  6 11  1  0  0  0  0
  7  8  1  0  0  0  0
  9 12  1  0  0  0  0
  9 13  1  0  0  0  0
M  END
>  <Score>
-1.936027

>  <Energy>
-5.772823

>  <Confidence>
0.754927

>  <Binding_Affinity>
-8.281794

>  <IC50_nM>
848.7

$$$$
