ml_pose_20
  PandaDock generated structure

 13 13  0  0  0  0  0  0  0  0999 V2000
  -14.6351  -17.4014    9.7568 O   0  0  0  0  0  0  0  0  0  0  0  0
  -15.3177  -17.6027    8.5351 C   0  0  0  0  0  0  0  0  0  0  0  0
  -16.3865  -16.6825    8.4015 C   0  0  0  0  0  0  0  0  0  0  0  0
  -15.1100  -18.6985    7.9761 C   0  0  0  0  0  0  0  0  0  0  0  0
  -17.1956  -16.9962    7.2596 C   0  0  0  0  0  0  0  0  0  0  0  0
  -16.5475  -15.4664    9.1402 C   0  0  0  0  0  0  0  0  0  0  0  0
  -16.9867  -18.1018    6.3413 C   0  0  0  0  0  0  0  0  0  0  0  0
  -15.9650  -19.0330    6.7820 C   0  0  0  0  0  0  0  0  0  0  0  0
  -14.0967  -19.7748    8.1674 C   0  0  0  0  0  0  0  0  0  0  0  0
  -15.9779  -14.2099    8.6249 C   0  0  0  0  0  0  0  0  0  0  0  0
  -18.0847  -15.2497    9.4684 C   0  0  0  0  0  0  0  0  0  0  0  0
  -14.5496  -20.8940    8.8563 C   0  0  0  0  0  0  0  0  0  0  0  0
  -13.2470  -19.9891    7.0304 C   0  0  0  0  0  0  0  0  0  0  0  0
  1  2  1  0  0  0  0
  2  3  1  0  0  0  0
  2  4  1  0  0  0  0
  3  5  1  0  0  0  0
  3  6  1  0  0  0  0
  4  8  1  0  0  0  0
  4  9  1  0  0  0  0
  5  7  1  0  0  0  0
  6 10  1  0  0  0  0
  6 11  1  0  0  0  0
  7  8  1  0  0  0  0
  9 12  1  0  0  0  0
  9 13  1  0  0  0  0
M  END
>  <Score>
-1.841490

>  <Energy>
-7.376326

>  <Confidence>
0.811681

>  <Binding_Affinity>
-8.002149

>  <IC50_nM>
1360.8

$$$$
