ml_pose_23
  PandaDock generated structure

 13 13  0  0  0  0  0  0  0  0999 V2000
  -17.0218  -19.2404    7.5807 O   0  0  0  0  0  0  0  0  0  0  0  0
  -16.0348  -18.0902    7.9906 C   0  0  0  0  0  0  0  0  0  0  0  0
  -14.7901  -18.4704    8.3936 C   0  0  0  0  0  0  0  0  0  0  0  0
  -16.3864  -16.8701    7.9315 C   0  0  0  0  0  0  0  0  0  0  0  0
  -13.9532  -17.4011    8.8176 C   0  0  0  0  0  0  0  0  0  0  0  0
  -14.2708  -19.8655    8.5695 C   0  0  0  0  0  0  0  0  0  0  0  0
  -14.3581  -16.0869    8.8516 C   0  0  0  0  0  0  0  0  0  0  0  0
  -15.6255  -15.8164    8.4518 C   0  0  0  0  0  0  0  0  0  0  0  0
  -17.9058  -16.4618    7.5520 C   0  0  0  0  0  0  0  0  0  0  0  0
  -13.4609  -20.1813    7.2351 C   0  0  0  0  0  0  0  0  0  0  0  0
  -13.5421  -20.0935    9.7651 C   0  0  0  0  0  0  0  0  0  0  0  0
  -18.8186  -16.0656    8.7346 C   0  0  0  0  0  0  0  0  0  0  0  0
  -17.9319  -15.4569    6.4665 C   0  0  0  0  0  0  0  0  0  0  0  0
  1  2  1  0  0  0  0
  2  3  1  0  0  0  0
  2  4  1  0  0  0  0
  3  5  1  0  0  0  0
  3  6  1  0  0  0  0
  4  8  1  0  0  0  0
  4  9  1  0  0  0  0
  5  7  1  0  0  0  0
  6 10  1  0  0  0  0
  6 11  1  0  0  0  0
  7  8  1  0  0  0  0
  9 12  1  0  0  0  0
  9 13  1  0  0  0  0
M  END
>  <Score>
-2.947008

>  <Energy>
-6.158045

>  <Confidence>
0.851512

>  <Binding_Affinity>
-14.075395

>  <IC50_nM>
0.0

$$$$
