ml_pose_4
  PandaDock generated structure

 13 13  0  0  0  0  0  0  0  0999 V2000
  -16.6935  -16.3569    7.2273 O   0  0  0  0  0  0  0  0  0  0  0  0
  -16.0374  -17.3927    7.8662 C   0  0  0  0  0  0  0  0  0  0  0  0
  -14.6204  -17.5888    7.5355 C   0  0  0  0  0  0  0  0  0  0  0  0
  -16.5817  -17.8727    8.9531 C   0  0  0  0  0  0  0  0  0  0  0  0
  -14.0649  -18.6158    8.2018 C   0  0  0  0  0  0  0  0  0  0  0  0
  -14.0379  -16.8230    6.3808 C   0  0  0  0  0  0  0  0  0  0  0  0
  -14.6305  -19.2108    9.3092 C   0  0  0  0  0  0  0  0  0  0  0  0
  -15.9716  -18.8817    9.6222 C   0  0  0  0  0  0  0  0  0  0  0  0
  -18.0150  -17.6505    9.2836 C   0  0  0  0  0  0  0  0  0  0  0  0
  -13.0669  -15.7559    6.8318 C   0  0  0  0  0  0  0  0  0  0  0  0
  -13.3087  -17.8518    5.5007 C   0  0  0  0  0  0  0  0  0  0  0  0
  -19.0010  -18.7495    8.8297 C   0  0  0  0  0  0  0  0  0  0  0  0
  -18.0705  -17.3499   10.7981 C   0  0  0  0  0  0  0  0  0  0  0  0
  1  2  1  0  0  0  0
  2  3  1  0  0  0  0
  2  4  1  0  0  0  0
  3  5  1  0  0  0  0
  3  6  1  0  0  0  0
  4  8  1  0  0  0  0
  4  9  1  0  0  0  0
  5  7  1  0  0  0  0
  6 10  1  0  0  0  0
  6 11  1  0  0  0  0
  7  8  1  0  0  0  0
  9 12  1  0  0  0  0
  9 13  1  0  0  0  0
M  END
>  <Score>
-2.395753

>  <Energy>
-6.193562

>  <Confidence>
0.615571

>  <Binding_Affinity>
-11.148724

>  <IC50_nM>
6.7

$$$$
