ml_pose_28
  PandaDock generated structure

 13 13  0  0  0  0  0  0  0  0999 V2000
  -14.6971  -17.3327    6.4921 O   0  0  0  0  0  0  0  0  0  0  0  0
  -15.2995  -17.5373    7.6596 C   0  0  0  0  0  0  0  0  0  0  0  0
  -14.7353  -18.1592    8.7959 C   0  0  0  0  0  0  0  0  0  0  0  0
  -16.7400  -17.2547    7.6875 C   0  0  0  0  0  0  0  0  0  0  0  0
  -15.5519  -18.4240    9.9210 C   0  0  0  0  0  0  0  0  0  0  0  0
  -13.2443  -18.4310    8.8225 C   0  0  0  0  0  0  0  0  0  0  0  0
  -16.8790  -18.1510    9.9770 C   0  0  0  0  0  0  0  0  0  0  0  0
  -17.4856  -17.6661    8.9268 C   0  0  0  0  0  0  0  0  0  0  0  0
  -17.4616  -16.7637    6.4713 C   0  0  0  0  0  0  0  0  0  0  0  0
  -12.5575  -17.2090    9.5131 C   0  0  0  0  0  0  0  0  0  0  0  0
  -12.9805  -19.7542    9.3909 C   0  0  0  0  0  0  0  0  0  0  0  0
  -18.2670  -17.8304    5.7852 C   0  0  0  0  0  0  0  0  0  0  0  0
  -18.2007  -15.5867    6.8971 C   0  0  0  0  0  0  0  0  0  0  0  0
  1  2  1  0  0  0  0
  2  3  1  0  0  0  0
  2  4  1  0  0  0  0
  3  5  1  0  0  0  0
  3  6  1  0  0  0  0
  4  8  1  0  0  0  0
  4  9  1  0  0  0  0
  5  7  1  0  0  0  0
  6 10  1  0  0  0  0
  6 11  1  0  0  0  0
  7  8  1  0  0  0  0
  9 12  1  0  0  0  0
  9 13  1  0  0  0  0
M  END
>  <Score>
-2.744459

>  <Energy>
-9.113374

>  <Confidence>
0.827503

>  <Binding_Affinity>
-13.525812

>  <IC50_nM>
0.1

$$$$
