ml_pose_20
  PandaDock generated structure

 13 13  0  0  0  0  0  0  0  0999 V2000
  -17.3073  -17.1036    8.9164 O   0  0  0  0  0  0  0  0  0  0  0  0
  -16.2325  -17.4401    8.4680 C   0  0  0  0  0  0  0  0  0  0  0  0
  -15.8943  -18.8715    8.3095 C   0  0  0  0  0  0  0  0  0  0  0  0
  -15.2239  -16.5834    8.0399 C   0  0  0  0  0  0  0  0  0  0  0  0
  -14.9823  -19.3454    7.6918 C   0  0  0  0  0  0  0  0  0  0  0  0
  -17.1318  -19.8192    8.6741 C   0  0  0  0  0  0  0  0  0  0  0  0
  -13.9299  -18.4296    7.2149 C   0  0  0  0  0  0  0  0  0  0  0  0
  -14.0148  -17.0773    7.4362 C   0  0  0  0  0  0  0  0  0  0  0  0
  -15.3542  -15.1187    8.2355 C   0  0  0  0  0  0  0  0  0  0  0  0
  -17.9413  -20.3176    7.4696 C   0  0  0  0  0  0  0  0  0  0  0  0
  -16.4359  -21.0248    9.4328 C   0  0  0  0  0  0  0  0  0  0  0  0
  -14.4831  -14.5588    9.4580 C   0  0  0  0  0  0  0  0  0  0  0  0
  -15.1687  -14.4100    6.9933 C   0  0  0  0  0  0  0  0  0  0  0  0
  1  2  1  0  0  0  0
  2  3  1  0  0  0  0
  2  4  1  0  0  0  0
  3  5  1  0  0  0  0
  3  6  1  0  0  0  0
  4  8  1  0  0  0  0
  4  9  1  0  0  0  0
  5  7  1  0  0  0  0
  6 10  1  0  0  0  0
  6 11  1  0  0  0  0
  7  8  1  0  0  0  0
  9 12  1  0  0  0  0
  9 13  1  0  0  0  0
M  END
>  <Score>
0.151574

>  <Energy>
-5.982657

>  <Confidence>
0.848426

>  <Binding_Affinity>
-4.705453

>  <IC50_nM>
355241.8

$$$$
ml_pose_21
  PandaDock generated structure

 13 13  0  0  0  0  0  0  0  0999 V2000
  -15.2395  -16.7294    9.9104 O   0  0  0  0  0  0  0  0  0  0  0  0
  -15.5237  -17.4329    8.7453 C   0  0  0  0  0  0  0  0  0  0  0  0
  -16.1801  -18.6976    8.7326 C   0  0  0  0  0  0  0  0  0  0  0  0
  -15.3782  -16.8525    7.4160 C   0  0  0  0  0  0  0  0  0  0  0  0
  -16.3435  -19.4012    7.4657 C   0  0  0  0  0  0  0  0  0  0  0  0
  -16.4348  -19.3279    9.9760 C   0  0  0  0  0  0  0  0  0  0  0  0
  -16.2432  -18.8000    6.2334 C   0  0  0  0  0  0  0  0  0  0  0  0
  -15.5844  -17.3822    6.3225 C   0  0  0  0  0  0  0  0  0  0  0  0
  -14.6704  -15.4563    7.4966 C   0  0  0  0  0  0  0  0  0  0  0  0
  -17.8595  -19.2009   10.4411 C   0  0  0  0  0  0  0  0  0  0  0  0
  -16.0560  -20.8868    9.9336 C   0  0  0  0  0  0  0  0  0  0  0  0
  -13.1250  -15.3950    7.1246 C   0  0  0  0  0  0  0  0  0  0  0  0
  -15.4618  -14.5374    6.5423 C   0  0  0  0  0  0  0  0  0  0  0  0
  1  2  1  0  0  0  0
  2  3  1  0  0  0  0
  2  4  1  0  0  0  0
  3  5  1  0  0  0  0
  3  6  1  0  0  0  0
  4  8  1  0  0  0  0
  4  9  1  0  0  0  0
  5  7  1  0  0  0  0
  6 10  1  0  0  0  0
  6 11  1  0  0  0  0
  7  8  1  0  0  0  0
  9 12  1  0  0  0  0
  9 13  1  0  0  0  0
M  END
>  <Score>
0.175548

>  <Energy>
-6.584470

>  <Confidence>
0.824452

>  <Binding_Affinity>
-3.000000

>  <IC50_nM>
6320605.5

$$$$
ml_pose_10
  PandaDock generated structure

 13 13  0  0  0  0  0  0  0  0999 V2000
  -15.6308  -15.6909    8.3820 O   0  0  0  0  0  0  0  0  0  0  0  0
  -15.6415  -17.0639    8.1969 C   0  0  0  0  0  0  0  0  0  0  0  0
  -14.5075  -17.9038    8.3144 C   0  0  0  0  0  0  0  0  0  0  0  0
  -16.9068  -17.7070    8.0947 C   0  0  0  0  0  0  0  0  0  0  0  0
  -14.5901  -19.3286    8.0879 C   0  0  0  0  0  0  0  0  0  0  0  0
  -13.1232  -17.1916    8.4572 C   0  0  0  0  0  0  0  0  0  0  0  0
  -15.8639  -19.9284    7.8684 C   0  0  0  0  0  0  0  0  0  0  0  0
  -17.0808  -19.0192    7.8737 C   0  0  0  0  0  0  0  0  0  0  0  0
  -18.1534  -16.8923    8.0578 C   0  0  0  0  0  0  0  0  0  0  0  0
  -12.6024  -17.3792    9.8582 C   0  0  0  0  0  0  0  0  0  0  0  0
  -12.0719  -17.8135    7.5018 C   0  0  0  0  0  0  0  0  0  0  0  0
  -18.7317  -16.8120    6.6023 C   0  0  0  0  0  0  0  0  0  0  0  0
  -19.1960  -17.3695    9.0447 C   0  0  0  0  0  0  0  0  0  0  0  0
  1  2  1  0  0  0  0
  2  3  1  0  0  0  0
  2  4  1  0  0  0  0
  3  5  1  0  0  0  0
  3  6  1  0  0  0  0
  4  8  1  0  0  0  0
  4  9  1  0  0  0  0
  5  7  1  0  0  0  0
  6 10  1  0  0  0  0
  6 11  1  0  0  0  0
  7  8  1  0  0  0  0
  9 12  1  0  0  0  0
  9 13  1  0  0  0  0
M  END
>  <Score>
0.179916

>  <Energy>
-6.518711

>  <Confidence>
0.820084

>  <Binding_Affinity>
-3.000000

>  <IC50_nM>
6320605.5

$$$$
ml_pose_1
  PandaDock generated structure

 13 13  0  0  0  0  0  0  0  0999 V2000
  -17.3380  -17.6526    9.4206 O   0  0  0  0  0  0  0  0  0  0  0  0
  -16.1998  -17.7032    8.4177 C   0  0  0  0  0  0  0  0  0  0  0  0
  -15.7351  -18.8392    7.8262 C   0  0  0  0  0  0  0  0  0  0  0  0
  -15.3058  -16.5664    8.5024 C   0  0  0  0  0  0  0  0  0  0  0  0
  -14.7401  -18.8161    7.0411 C   0  0  0  0  0  0  0  0  0  0  0  0
  -16.7125  -20.0855    7.9732 C   0  0  0  0  0  0  0  0  0  0  0  0
  -13.9627  -17.7761    6.8936 C   0  0  0  0  0  0  0  0  0  0  0  0
  -14.4026  -16.5691    7.5542 C   0  0  0  0  0  0  0  0  0  0  0  0
  -15.6485  -15.2903    9.1118 C   0  0  0  0  0  0  0  0  0  0  0  0
  -17.6570  -20.2440    6.7824 C   0  0  0  0  0  0  0  0  0  0  0  0
  -15.8783  -21.3215    8.2551 C   0  0  0  0  0  0  0  0  0  0  0  0
  -14.7408  -15.1162   10.3221 C   0  0  0  0  0  0  0  0  0  0  0  0
  -15.7788  -14.1199    8.2396 C   0  0  0  0  0  0  0  0  0  0  0  0
  1  2  1  0  0  0  0
  2  3  1  0  0  0  0
  2  4  1  0  0  0  0
  3  5  1  0  0  0  0
  3  6  1  0  0  0  0
  4  8  1  0  0  0  0
  4  9  1  0  0  0  0
  5  7  1  0  0  0  0
  6 10  1  0  0  0  0
  6 11  1  0  0  0  0
  7  8  1  0  0  0  0
  9 12  1  0  0  0  0
  9 13  1  0  0  0  0
M  END
>  <Score>
0.205428

>  <Energy>
-5.545573

>  <Confidence>
0.794572

>  <Binding_Affinity>
-3.000000

>  <IC50_nM>
6320605.5

$$$$
ml_pose_17
  PandaDock generated structure

 13 13  0  0  0  0  0  0  0  0999 V2000
  -14.6822  -18.0007    6.4877 O   0  0  0  0  0  0  0  0  0  0  0  0
  -15.3991  -17.8834    7.6896 C   0  0  0  0  0  0  0  0  0  0  0  0
  -15.1607  -16.7601    8.3941 C   0  0  0  0  0  0  0  0  0  0  0  0
  -16.3027  -18.6971    8.1518 C   0  0  0  0  0  0  0  0  0  0  0  0
  -15.8236  -16.4213    9.5763 C   0  0  0  0  0  0  0  0  0  0  0  0
  -14.1326  -15.5531    7.8640 C   0  0  0  0  0  0  0  0  0  0  0  0
  -16.7480  -17.3047   10.0226 C   0  0  0  0  0  0  0  0  0  0  0  0
  -17.0161  -18.5645    9.4108 C   0  0  0  0  0  0  0  0  0  0  0  0
  -16.6586  -20.0001    7.4223 C   0  0  0  0  0  0  0  0  0  0  0  0
  -14.9196  -14.4644    7.0895 C   0  0  0  0  0  0  0  0  0  0  0  0
  -13.2901  -15.0845    8.9758 C   0  0  0  0  0  0  0  0  0  0  0  0
  -15.8812  -21.1851    8.0325 C   0  0  0  0  0  0  0  0  0  0  0  0
  -18.0854  -20.1809    7.2230 C   0  0  0  0  0  0  0  0  0  0  0  0
  1  2  1  0  0  0  0
  2  3  1  0  0  0  0
  2  4  1  0  0  0  0
  3  5  1  0  0  0  0
  3  6  1  0  0  0  0
  4  8  1  0  0  0  0
  4  9  1  0  0  0  0
  5  7  1  0  0  0  0
  6 10  1  0  0  0  0
  6 11  1  0  0  0  0
  7  8  1  0  0  0  0
  9 12  1  0  0  0  0
  9 13  1  0  0  0  0
M  END
>  <Score>
0.215557

>  <Energy>
-6.623024

>  <Confidence>
0.784443

>  <Binding_Affinity>
-3.000000

>  <IC50_nM>
6320605.5

$$$$
ml_pose_23
  PandaDock generated structure

 13 13  0  0  0  0  0  0  0  0999 V2000
  -14.8722  -19.1638    9.3456 O   0  0  0  0  0  0  0  0  0  0  0  0
  -15.4820  -18.1638    8.4391 C   0  0  0  0  0  0  0  0  0  0  0  0
  -16.5016  -17.2689    8.9460 C   0  0  0  0  0  0  0  0  0  0  0  0
  -15.0841  -17.9378    7.1434 C   0  0  0  0  0  0  0  0  0  0  0  0
  -17.0672  -16.2603    8.2703 C   0  0  0  0  0  0  0  0  0  0  0  0
  -16.8797  -17.6095   10.4375 C   0  0  0  0  0  0  0  0  0  0  0  0
  -16.5738  -16.0723    6.9844 C   0  0  0  0  0  0  0  0  0  0  0  0
  -15.6631  -16.9249    6.4882 C   0  0  0  0  0  0  0  0  0  0  0  0
  -13.9245  -18.7776    6.6532 C   0  0  0  0  0  0  0  0  0  0  0  0
  -16.1517  -16.7036   11.4258 C   0  0  0  0  0  0  0  0  0  0  0  0
  -18.3583  -17.4597   10.6361 C   0  0  0  0  0  0  0  0  0  0  0  0
  -14.5488  -19.7565    5.6166 C   0  0  0  0  0  0  0  0  0  0  0  0
  -12.9931  -18.0013    5.9538 C   0  0  0  0  0  0  0  0  0  0  0  0
  1  2  1  0  0  0  0
  2  3  1  0  0  0  0
  2  4  1  0  0  0  0
  3  5  1  0  0  0  0
  3  6  1  0  0  0  0
  4  8  1  0  0  0  0
  4  9  1  0  0  0  0
  5  7  1  0  0  0  0
  6 10  1  0  0  0  0
  6 11  1  0  0  0  0
  7  8  1  0  0  0  0
  9 12  1  0  0  0  0
  9 13  1  0  0  0  0
M  END
>  <Score>
0.219274

>  <Energy>
-7.041624

>  <Confidence>
0.780726

>  <Binding_Affinity>
-3.000000

>  <IC50_nM>
6320605.5

$$$$
ml_pose_19
  PandaDock generated structure

 13 13  0  0  0  0  0  0  0  0999 V2000
  -15.8795  -18.6497    9.8659 O   0  0  0  0  0  0  0  0  0  0  0  0
  -15.7111  -17.9194    8.7093 C   0  0  0  0  0  0  0  0  0  0  0  0
  -16.0361  -18.6477    7.5980 C   0  0  0  0  0  0  0  0  0  0  0  0
  -15.2273  -16.6166    8.5742 C   0  0  0  0  0  0  0  0  0  0  0  0
  -16.0074  -18.0357    6.2840 C   0  0  0  0  0  0  0  0  0  0  0  0
  -16.5779  -20.1173    7.6538 C   0  0  0  0  0  0  0  0  0  0  0  0
  -15.6155  -16.6324    6.2367 C   0  0  0  0  0  0  0  0  0  0  0  0
  -15.1698  -16.0712    7.3927 C   0  0  0  0  0  0  0  0  0  0  0  0
  -14.7979  -15.8703    9.9276 C   0  0  0  0  0  0  0  0  0  0  0  0
  -18.1688  -20.1636    7.5299 C   0  0  0  0  0  0  0  0  0  0  0  0
  -15.9093  -20.8914    6.5107 C   0  0  0  0  0  0  0  0  0  0  0  0
  -13.3569  -15.9094   10.0265 C   0  0  0  0  0  0  0  0  0  0  0  0
  -15.6425  -14.5755   10.0306 C   0  0  0  0  0  0  0  0  0  0  0  0
  1  2  1  0  0  0  0
  2  3  1  0  0  0  0
  2  4  1  0  0  0  0
  3  5  1  0  0  0  0
  3  6  1  0  0  0  0
  4  8  1  0  0  0  0
  4  9  1  0  0  0  0
  5  7  1  0  0  0  0
  6 10  1  0  0  0  0
  6 11  1  0  0  0  0
  7  8  1  0  0  0  0
  9 12  1  0  0  0  0
  9 13  1  0  0  0  0
M  END
>  <Score>
0.252639

>  <Energy>
-7.983412

>  <Confidence>
0.747361

>  <Binding_Affinity>
-3.000000

>  <IC50_nM>
6320605.5

$$$$
ml_pose_28
  PandaDock generated structure

 13 13  0  0  0  0  0  0  0  0999 V2000
  -14.9432  -19.2624    9.0750 O   0  0  0  0  0  0  0  0  0  0  0  0
  -15.3743  -18.0505    8.3959 C   0  0  0  0  0  0  0  0  0  0  0  0
  -15.4348  -16.9470    9.0648 C   0  0  0  0  0  0  0  0  0  0  0  0
  -16.1259  -18.2380    7.0902 C   0  0  0  0  0  0  0  0  0  0  0  0
  -15.8280  -15.8639    8.4757 C   0  0  0  0  0  0  0  0  0  0  0  0
  -14.6955  -16.8071   10.3488 C   0  0  0  0  0  0  0  0  0  0  0  0
  -16.6270  -16.0561    7.2289 C   0  0  0  0  0  0  0  0  0  0  0  0
  -16.6553  -17.1529    6.6601 C   0  0  0  0  0  0  0  0  0  0  0  0
  -16.2577  -19.6987    6.5080 C   0  0  0  0  0  0  0  0  0  0  0  0
  -13.2978  -16.3245   10.2770 C   0  0  0  0  0  0  0  0  0  0  0  0
  -15.4899  -15.8700   11.3649 C   0  0  0  0  0  0  0  0  0  0  0  0
  -17.6344  -20.2685    6.6792 C   0  0  0  0  0  0  0  0  0  0  0  0
  -15.7363  -19.5606    5.1716 C   0  0  0  0  0  0  0  0  0  0  0  0
  1  2  1  0  0  0  0
  2  3  1  0  0  0  0
  2  4  1  0  0  0  0
  3  5  1  0  0  0  0
  3  6  1  0  0  0  0
  4  8  1  0  0  0  0
  4  9  1  0  0  0  0
  5  7  1  0  0  0  0
  6 10  1  0  0  0  0
  6 11  1  0  0  0  0
  7  8  1  0  0  0  0
  9 12  1  0  0  0  0
  9 13  1  0  0  0  0
M  END
>  <Score>
0.298119

>  <Energy>
-6.742002

>  <Confidence>
0.701881

>  <Binding_Affinity>
-3.000000

>  <IC50_nM>
6320605.5

$$$$
ml_pose_16
  PandaDock generated structure

 13 13  0  0  0  0  0  0  0  0999 V2000
  -14.4341  -18.9481    9.0560 O   0  0  0  0  0  0  0  0  0  0  0  0
  -15.3247  -18.0689    8.4774 C   0  0  0  0  0  0  0  0  0  0  0  0
  -16.5214  -17.9672    8.8998 C   0  0  0  0  0  0  0  0  0  0  0  0
  -14.9199  -17.3393    7.3709 C   0  0  0  0  0  0  0  0  0  0  0  0
  -17.5549  -17.0655    8.3618 C   0  0  0  0  0  0  0  0  0  0  0  0
  -17.0150  -18.5869   10.3089 C   0  0  0  0  0  0  0  0  0  0  0  0
  -17.1008  -16.3000    7.2150 C   0  0  0  0  0  0  0  0  0  0  0  0
  -15.8193  -16.5725    6.5637 C   0  0  0  0  0  0  0  0  0  0  0  0
  -13.5049  -17.6116    6.6891 C   0  0  0  0  0  0  0  0  0  0  0  0
  -16.8277  -17.6947   11.4526 C   0  0  0  0  0  0  0  0  0  0  0  0
  -18.4536  -19.1711   10.1017 C   0  0  0  0  0  0  0  0  0  0  0  0
  -13.6709  -18.5235    5.4096 C   0  0  0  0  0  0  0  0  0  0  0  0
  -12.9528  -16.2505    6.4335 C   0  0  0  0  0  0  0  0  0  0  0  0
  1  2  1  0  0  0  0
  2  3  1  0  0  0  0
  2  4  1  0  0  0  0
  3  5  1  0  0  0  0
  3  6  1  0  0  0  0
  4  8  1  0  0  0  0
  4  9  1  0  0  0  0
  5  7  1  0  0  0  0
  6 10  1  0  0  0  0
  6 11  1  0  0  0  0
  7  8  1  0  0  0  0
  9 12  1  0  0  0  0
  9 13  1  0  0  0  0
M  END
>  <Score>
0.298472

>  <Energy>
-5.966766

>  <Confidence>
0.701528

>  <Binding_Affinity>
-3.000000

>  <IC50_nM>
6320605.5

$$$$
ml_pose_26
  PandaDock generated structure

 13 13  0  0  0  0  0  0  0  0999 V2000
  -17.2959  -16.6227    8.6629 O   0  0  0  0  0  0  0  0  0  0  0  0
  -16.1182  -17.3802    8.2796 C   0  0  0  0  0  0  0  0  0  0  0  0
  -15.8475  -18.3499    9.2005 C   0  0  0  0  0  0  0  0  0  0  0  0
  -15.4737  -17.1210    7.0813 C   0  0  0  0  0  0  0  0  0  0  0  0
  -14.6609  -19.1610    8.9076 C   0  0  0  0  0  0  0  0  0  0  0  0
  -16.4548  -18.5873   10.4525 C   0  0  0  0  0  0  0  0  0  0  0  0
  -13.9292  -18.8882    7.7491 C   0  0  0  0  0  0  0  0  0  0  0  0
  -14.3447  -18.0034    6.7888 C   0  0  0  0  0  0  0  0  0  0  0  0
  -15.9229  -16.0592    6.2059 C   0  0  0  0  0  0  0  0  0  0  0  0
  -17.4432  -19.6823   10.3748 C   0  0  0  0  0  0  0  0  0  0  0  0
  -15.6544  -18.7594   11.7890 C   0  0  0  0  0  0  0  0  0  0  0  0
  -14.9273  -14.9100    6.1436 C   0  0  0  0  0  0  0  0  0  0  0  0
  -16.0273  -16.5755    4.7043 C   0  0  0  0  0  0  0  0  0  0  0  0
  1  2  1  0  0  0  0
  2  3  1  0  0  0  0
  2  4  1  0  0  0  0
  3  5  1  0  0  0  0
  3  6  1  0  0  0  0
  4  8  1  0  0  0  0
  4  9  1  0  0  0  0
  5  7  1  0  0  0  0
  6 10  1  0  0  0  0
  6 11  1  0  0  0  0
  7  8  1  0  0  0  0
  9 12  1  0  0  0  0
  9 13  1  0  0  0  0
M  END
>  <Score>
0.306397

>  <Energy>
-6.394134

>  <Confidence>
0.693603

>  <Binding_Affinity>
-3.000000

>  <IC50_nM>
6320605.5

$$$$
