ml_pose_28
  PandaDock generated structure

 13 13  0  0  0  0  0  0  0  0999 V2000
  -14.9432  -19.2624    9.0750 O   0  0  0  0  0  0  0  0  0  0  0  0
  -15.3743  -18.0505    8.3959 C   0  0  0  0  0  0  0  0  0  0  0  0
  -15.4348  -16.9470    9.0648 C   0  0  0  0  0  0  0  0  0  0  0  0
  -16.1259  -18.2380    7.0902 C   0  0  0  0  0  0  0  0  0  0  0  0
  -15.8280  -15.8639    8.4757 C   0  0  0  0  0  0  0  0  0  0  0  0
  -14.6955  -16.8071   10.3488 C   0  0  0  0  0  0  0  0  0  0  0  0
  -16.6270  -16.0561    7.2289 C   0  0  0  0  0  0  0  0  0  0  0  0
  -16.6553  -17.1529    6.6601 C   0  0  0  0  0  0  0  0  0  0  0  0
  -16.2577  -19.6987    6.5080 C   0  0  0  0  0  0  0  0  0  0  0  0
  -13.2978  -16.3245   10.2770 C   0  0  0  0  0  0  0  0  0  0  0  0
  -15.4899  -15.8700   11.3649 C   0  0  0  0  0  0  0  0  0  0  0  0
  -17.6344  -20.2685    6.6792 C   0  0  0  0  0  0  0  0  0  0  0  0
  -15.7363  -19.5606    5.1716 C   0  0  0  0  0  0  0  0  0  0  0  0
  1  2  1  0  0  0  0
  2  3  1  0  0  0  0
  2  4  1  0  0  0  0
  3  5  1  0  0  0  0
  3  6  1  0  0  0  0
  4  8  1  0  0  0  0
  4  9  1  0  0  0  0
  5  7  1  0  0  0  0
  6 10  1  0  0  0  0
  6 11  1  0  0  0  0
  7  8  1  0  0  0  0
  9 12  1  0  0  0  0
  9 13  1  0  0  0  0
M  END
>  <Score>
0.298119

>  <Energy>
-6.742002

>  <Confidence>
0.701881

>  <Binding_Affinity>
-3.146519

>  <IC50_nM>
4935694.2

$$$$
