ml_pose_16
  PandaDock generated structure

 13 13  0  0  0  0  0  0  0  0999 V2000
  -14.4341  -18.9481    9.0560 O   0  0  0  0  0  0  0  0  0  0  0  0
  -15.3247  -18.0689    8.4774 C   0  0  0  0  0  0  0  0  0  0  0  0
  -16.5214  -17.9672    8.8998 C   0  0  0  0  0  0  0  0  0  0  0  0
  -14.9199  -17.3393    7.3709 C   0  0  0  0  0  0  0  0  0  0  0  0
  -17.5549  -17.0655    8.3618 C   0  0  0  0  0  0  0  0  0  0  0  0
  -17.0150  -18.5869   10.3089 C   0  0  0  0  0  0  0  0  0  0  0  0
  -17.1008  -16.3000    7.2150 C   0  0  0  0  0  0  0  0  0  0  0  0
  -15.8193  -16.5725    6.5637 C   0  0  0  0  0  0  0  0  0  0  0  0
  -13.5049  -17.6116    6.6891 C   0  0  0  0  0  0  0  0  0  0  0  0
  -16.8277  -17.6947   11.4526 C   0  0  0  0  0  0  0  0  0  0  0  0
  -18.4536  -19.1711   10.1017 C   0  0  0  0  0  0  0  0  0  0  0  0
  -13.6709  -18.5235    5.4096 C   0  0  0  0  0  0  0  0  0  0  0  0
  -12.9528  -16.2505    6.4335 C   0  0  0  0  0  0  0  0  0  0  0  0
  1  2  1  0  0  0  0
  2  3  1  0  0  0  0
  2  4  1  0  0  0  0
  3  5  1  0  0  0  0
  3  6  1  0  0  0  0
  4  8  1  0  0  0  0
  4  9  1  0  0  0  0
  5  7  1  0  0  0  0
  6 10  1  0  0  0  0
  6 11  1  0  0  0  0
  7  8  1  0  0  0  0
  9 12  1  0  0  0  0
  9 13  1  0  0  0  0
M  END
>  <Score>
0.298472

>  <Energy>
-5.966766

>  <Confidence>
0.701528

>  <Binding_Affinity>
-3.000000

>  <IC50_nM>
6320605.5

$$$$
