ml_pose_19
  PandaDock generated structure

 13 13  0  0  0  0  0  0  0  0999 V2000
  -15.8795  -18.6497    9.8659 O   0  0  0  0  0  0  0  0  0  0  0  0
  -15.7111  -17.9194    8.7093 C   0  0  0  0  0  0  0  0  0  0  0  0
  -16.0361  -18.6477    7.5980 C   0  0  0  0  0  0  0  0  0  0  0  0
  -15.2273  -16.6166    8.5742 C   0  0  0  0  0  0  0  0  0  0  0  0
  -16.0074  -18.0357    6.2840 C   0  0  0  0  0  0  0  0  0  0  0  0
  -16.5779  -20.1173    7.6538 C   0  0  0  0  0  0  0  0  0  0  0  0
  -15.6155  -16.6324    6.2367 C   0  0  0  0  0  0  0  0  0  0  0  0
  -15.1698  -16.0712    7.3927 C   0  0  0  0  0  0  0  0  0  0  0  0
  -14.7979  -15.8703    9.9276 C   0  0  0  0  0  0  0  0  0  0  0  0
  -18.1688  -20.1636    7.5299 C   0  0  0  0  0  0  0  0  0  0  0  0
  -15.9093  -20.8914    6.5107 C   0  0  0  0  0  0  0  0  0  0  0  0
  -13.3569  -15.9094   10.0265 C   0  0  0  0  0  0  0  0  0  0  0  0
  -15.6425  -14.5755   10.0306 C   0  0  0  0  0  0  0  0  0  0  0  0
  1  2  1  0  0  0  0
  2  3  1  0  0  0  0
  2  4  1  0  0  0  0
  3  5  1  0  0  0  0
  3  6  1  0  0  0  0
  4  8  1  0  0  0  0
  4  9  1  0  0  0  0
  5  7  1  0  0  0  0
  6 10  1  0  0  0  0
  6 11  1  0  0  0  0
  7  8  1  0  0  0  0
  9 12  1  0  0  0  0
  9 13  1  0  0  0  0
M  END
>  <Score>
0.252639

>  <Energy>
-7.983412

>  <Confidence>
0.747361

>  <Binding_Affinity>
-3.349322

>  <IC50_nM>
3504918.5

$$$$
