ml_pose_21
  PandaDock generated structure

 13 13  0  0  0  0  0  0  0  0999 V2000
  -15.2395  -16.7294    9.9104 O   0  0  0  0  0  0  0  0  0  0  0  0
  -15.5237  -17.4329    8.7453 C   0  0  0  0  0  0  0  0  0  0  0  0
  -16.1801  -18.6976    8.7326 C   0  0  0  0  0  0  0  0  0  0  0  0
  -15.3782  -16.8525    7.4160 C   0  0  0  0  0  0  0  0  0  0  0  0
  -16.3435  -19.4012    7.4657 C   0  0  0  0  0  0  0  0  0  0  0  0
  -16.4348  -19.3279    9.9760 C   0  0  0  0  0  0  0  0  0  0  0  0
  -16.2432  -18.8000    6.2334 C   0  0  0  0  0  0  0  0  0  0  0  0
  -15.5844  -17.3822    6.3225 C   0  0  0  0  0  0  0  0  0  0  0  0
  -14.6704  -15.4563    7.4966 C   0  0  0  0  0  0  0  0  0  0  0  0
  -17.8595  -19.2009   10.4411 C   0  0  0  0  0  0  0  0  0  0  0  0
  -16.0560  -20.8868    9.9336 C   0  0  0  0  0  0  0  0  0  0  0  0
  -13.1250  -15.3950    7.1246 C   0  0  0  0  0  0  0  0  0  0  0  0
  -15.4618  -14.5374    6.5423 C   0  0  0  0  0  0  0  0  0  0  0  0
  1  2  1  0  0  0  0
  2  3  1  0  0  0  0
  2  4  1  0  0  0  0
  3  5  1  0  0  0  0
  3  6  1  0  0  0  0
  4  8  1  0  0  0  0
  4  9  1  0  0  0  0
  5  7  1  0  0  0  0
  6 10  1  0  0  0  0
  6 11  1  0  0  0  0
  7  8  1  0  0  0  0
  9 12  1  0  0  0  0
  9 13  1  0  0  0  0
M  END
>  <Score>
0.175548

>  <Energy>
-6.584470

>  <Confidence>
0.824452

>  <Binding_Affinity>
-3.504420

>  <IC50_nM>
2697604.8

$$$$
