ml_pose_1
  PandaDock generated structure

 13 13  0  0  0  0  0  0  0  0999 V2000
  -17.3380  -17.6526    9.4206 O   0  0  0  0  0  0  0  0  0  0  0  0
  -16.1998  -17.7032    8.4177 C   0  0  0  0  0  0  0  0  0  0  0  0
  -15.7351  -18.8392    7.8262 C   0  0  0  0  0  0  0  0  0  0  0  0
  -15.3058  -16.5664    8.5024 C   0  0  0  0  0  0  0  0  0  0  0  0
  -14.7401  -18.8161    7.0411 C   0  0  0  0  0  0  0  0  0  0  0  0
  -16.7125  -20.0855    7.9732 C   0  0  0  0  0  0  0  0  0  0  0  0
  -13.9627  -17.7761    6.8936 C   0  0  0  0  0  0  0  0  0  0  0  0
  -14.4026  -16.5691    7.5542 C   0  0  0  0  0  0  0  0  0  0  0  0
  -15.6485  -15.2903    9.1118 C   0  0  0  0  0  0  0  0  0  0  0  0
  -17.6570  -20.2440    6.7824 C   0  0  0  0  0  0  0  0  0  0  0  0
  -15.8783  -21.3215    8.2551 C   0  0  0  0  0  0  0  0  0  0  0  0
  -14.7408  -15.1162   10.3221 C   0  0  0  0  0  0  0  0  0  0  0  0
  -15.7788  -14.1199    8.2396 C   0  0  0  0  0  0  0  0  0  0  0  0
  1  2  1  0  0  0  0
  2  3  1  0  0  0  0
  2  4  1  0  0  0  0
  3  5  1  0  0  0  0
  3  6  1  0  0  0  0
  4  8  1  0  0  0  0
  4  9  1  0  0  0  0
  5  7  1  0  0  0  0
  6 10  1  0  0  0  0
  6 11  1  0  0  0  0
  7  8  1  0  0  0  0
  9 12  1  0  0  0  0
  9 13  1  0  0  0  0
M  END
>  <Score>
0.205428

>  <Energy>
-5.545573

>  <Confidence>
0.794572

>  <Binding_Affinity>
-3.000000

>  <IC50_nM>
6320605.5

$$$$
