ml_pose_20
  PandaDock generated structure

 13 13  0  0  0  0  0  0  0  0999 V2000
  -17.3073  -17.1036    8.9164 O   0  0  0  0  0  0  0  0  0  0  0  0
  -16.2325  -17.4401    8.4680 C   0  0  0  0  0  0  0  0  0  0  0  0
  -15.8943  -18.8715    8.3095 C   0  0  0  0  0  0  0  0  0  0  0  0
  -15.2239  -16.5834    8.0399 C   0  0  0  0  0  0  0  0  0  0  0  0
  -14.9823  -19.3454    7.6918 C   0  0  0  0  0  0  0  0  0  0  0  0
  -17.1318  -19.8192    8.6741 C   0  0  0  0  0  0  0  0  0  0  0  0
  -13.9299  -18.4296    7.2149 C   0  0  0  0  0  0  0  0  0  0  0  0
  -14.0148  -17.0773    7.4362 C   0  0  0  0  0  0  0  0  0  0  0  0
  -15.3542  -15.1187    8.2355 C   0  0  0  0  0  0  0  0  0  0  0  0
  -17.9413  -20.3176    7.4696 C   0  0  0  0  0  0  0  0  0  0  0  0
  -16.4359  -21.0248    9.4328 C   0  0  0  0  0  0  0  0  0  0  0  0
  -14.4831  -14.5588    9.4580 C   0  0  0  0  0  0  0  0  0  0  0  0
  -15.1687  -14.4100    6.9933 C   0  0  0  0  0  0  0  0  0  0  0  0
  1  2  1  0  0  0  0
  2  3  1  0  0  0  0
  2  4  1  0  0  0  0
  3  5  1  0  0  0  0
  3  6  1  0  0  0  0
  4  8  1  0  0  0  0
  4  9  1  0  0  0  0
  5  7  1  0  0  0  0
  6 10  1  0  0  0  0
  6 11  1  0  0  0  0
  7  8  1  0  0  0  0
  9 12  1  0  0  0  0
  9 13  1  0  0  0  0
M  END
>  <Score>
0.151574

>  <Energy>
-5.982657

>  <Confidence>
0.848426

>  <Binding_Affinity>
-6.117089

>  <IC50_nM>
32785.5

$$$$
