ml_pose_26
  PandaDock generated structure

 13 13  0  0  0  0  0  0  0  0999 V2000
  -17.2959  -16.6227    8.6629 O   0  0  0  0  0  0  0  0  0  0  0  0
  -16.1182  -17.3802    8.2796 C   0  0  0  0  0  0  0  0  0  0  0  0
  -15.8475  -18.3499    9.2005 C   0  0  0  0  0  0  0  0  0  0  0  0
  -15.4737  -17.1210    7.0813 C   0  0  0  0  0  0  0  0  0  0  0  0
  -14.6609  -19.1610    8.9076 C   0  0  0  0  0  0  0  0  0  0  0  0
  -16.4548  -18.5873   10.4525 C   0  0  0  0  0  0  0  0  0  0  0  0
  -13.9292  -18.8882    7.7491 C   0  0  0  0  0  0  0  0  0  0  0  0
  -14.3447  -18.0034    6.7888 C   0  0  0  0  0  0  0  0  0  0  0  0
  -15.9229  -16.0592    6.2059 C   0  0  0  0  0  0  0  0  0  0  0  0
  -17.4432  -19.6823   10.3748 C   0  0  0  0  0  0  0  0  0  0  0  0
  -15.6544  -18.7594   11.7890 C   0  0  0  0  0  0  0  0  0  0  0  0
  -14.9273  -14.9100    6.1436 C   0  0  0  0  0  0  0  0  0  0  0  0
  -16.0273  -16.5755    4.7043 C   0  0  0  0  0  0  0  0  0  0  0  0
  1  2  1  0  0  0  0
  2  3  1  0  0  0  0
  2  4  1  0  0  0  0
  3  5  1  0  0  0  0
  3  6  1  0  0  0  0
  4  8  1  0  0  0  0
  4  9  1  0  0  0  0
  5  7  1  0  0  0  0
  6 10  1  0  0  0  0
  6 11  1  0  0  0  0
  7  8  1  0  0  0  0
  9 12  1  0  0  0  0
  9 13  1  0  0  0  0
M  END
>  <Score>
0.306397

>  <Energy>
-6.394134

>  <Confidence>
0.693603

>  <Binding_Affinity>
-3.085224

>  <IC50_nM>
5473723.5

$$$$
