ga_pose_4454803248
  PandaDock generated structure

 20  6  0  0  0  0  0  0  0  0999 V2000
  -30.9997  -21.8828   -0.7679 O   0  0  0  0  0  0  0  0  0  0  0  0
  -30.6139  -20.7974    3.1223 C   0  0  0  0  0  0  0  0  0  0  0  0
  -31.0878  -21.6772    2.2654 C   0  0  0  0  0  0  0  0  0  0  0  0
  -33.3243  -20.3332    0.5583 C   0  0  0  0  0  0  0  0  0  0  0  0
  -32.5790  -20.7768   -1.3919 C   0  0  0  0  0  0  0  0  0  0  0  0
  -37.8845  -17.8822    1.3814 C   0  0  0  0  0  0  0  0  0  0  0  0
  -30.8614  -18.8487   -2.3278 C   0  0  0  0  0  0  0  0  0  0  0  0
  -32.7286  -19.5671    0.8135 C   0  0  0  0  0  0  0  0  0  0  0  0
  -34.3655  -17.9463    3.6789 C   0  0  0  0  0  0  0  0  0  0  0  0
  -31.3655  -18.7746    0.7285 C   0  0  0  0  0  0  0  0  0  0  0  0
  -29.4443  -20.5456   -0.0240 C   0  0  0  0  0  0  0  0  0  0  0  0
  -34.9418  -23.0068    1.2674 C   0  0  0  0  0  0  0  0  0  0  0  0
  -31.6904  -17.7158   -2.5804 C   0  0  0  0  0  0  0  0  0  0  0  0
  -34.2432  -16.8007    5.3736 C   0  0  0  0  0  0  0  0  0  0  0  0
  -33.6516  -17.0249   -0.3861 C   0  0  0  0  0  0  0  0  0  0  0  0
  -32.0795  -17.4145    3.0522 C   0  0  0  0  0  0  0  0  0  0  0  0
  -33.8263  -22.0923    3.1507 C   0  0  0  0  0  0  0  0  0  0  0  0
  -33.2186  -17.9842    1.7126 C   0  0  0  0  0  0  0  0  0  0  0  0
  -34.4520  -18.4473   -1.4752 C   0  0  0  0  0  0  0  0  0  0  0  0
  -30.7160  -22.1634    2.1300 C   0  0  0  0  0  0  0  0  0  0  0  0
  2  3  1  0  0  0  0
  2 20  1  0  0  0  0
  3 20  1  0  0  0  0
  4  8  1  0  0  0  0
  7 13  1  0  0  0  0
  8 10  1  0  0  0  0
M  END
>  <Score>
-20.062569

>  <Energy>
0.000000

>  <Confidence>
0.000000

>  <Binding_Affinity>
-15.000000

>  <IC50_nM>
0.0

$$$$
ga_pose_4454859088
  PandaDock generated structure

 20 11  0  0  0  0  0  0  0  0999 V2000
  -33.8342  -19.5672   -3.1045 O   0  0  0  0  0  0  0  0  0  0  0  0
  -33.2166  -19.4171    4.7281 C   0  0  0  0  0  0  0  0  0  0  0  0
  -35.6222  -19.7949    0.2800 C   0  0  0  0  0  0  0  0  0  0  0  0
  -30.9750  -22.2592    2.6693 C   0  0  0  0  0  0  0  0  0  0  0  0
  -34.9040  -19.0391    1.1083 C   0  0  0  0  0  0  0  0  0  0  0  0
  -32.1717  -20.8236   -0.9596 C   0  0  0  0  0  0  0  0  0  0  0  0
  -32.2655  -19.6442    4.3612 C   0  0  0  0  0  0  0  0  0  0  0  0
  -30.5283  -24.6285    4.8826 C   0  0  0  0  0  0  0  0  0  0  0  0
  -31.2349  -19.3115    1.0152 C   0  0  0  0  0  0  0  0  0  0  0  0
  -34.5737  -19.9235    1.7014 C   0  0  0  0  0  0  0  0  0  0  0  0
  -31.6308  -24.0073    1.6195 C   0  0  0  0  0  0  0  0  0  0  0  0
  -31.1681  -23.6966    5.2723 C   0  0  0  0  0  0  0  0  0  0  0  0
  -29.1128  -20.0455    0.7546 C   0  0  0  0  0  0  0  0  0  0  0  0
  -34.1061  -20.6025   -1.8561 C   0  0  0  0  0  0  0  0  0  0  0  0
  -35.7182  -19.4763   -1.0559 C   0  0  0  0  0  0  0  0  0  0  0  0
  -29.0923  -20.0006   -2.7377 C   0  0  0  0  0  0  0  0  0  0  0  0
  -33.3185  -21.5213   -2.7507 C   0  0  0  0  0  0  0  0  0  0  0  0
  -35.7690  -22.9524    3.0799 C   0  0  0  0  0  0  0  0  0  0  0  0
  -33.3870  -19.8232    3.6149 C   0  0  0  0  0  0  0  0  0  0  0  0
  -34.1079  -20.7267    1.7434 C   0  0  0  0  0  0  0  0  0  0  0  0
  1 14  1  0  0  0  0
  2  7  1  0  0  0  0
  2 19  1  0  0  0  0
  3  5  1  0  0  0  0
  3 10  1  0  0  0  0
  3 15  1  0  0  0  0
  5 10  1  0  0  0  0
  7 19  1  0  0  0  0
  8 12  1  0  0  0  0
 10 20  1  0  0  0  0
 14 17  1  0  0  0  0
M  END
>  <Score>
-20.062569

>  <Energy>
0.000000

>  <Confidence>
0.000000

>  <Binding_Affinity>
-15.000000

>  <IC50_nM>
0.0

$$$$
ga_pose_4454733008
  PandaDock generated structure

 20 12  0  0  0  0  0  0  0  0999 V2000
  -32.2064  -23.0197    4.3326 O   0  0  0  0  0  0  0  0  0  0  0  0
  -31.3729  -20.3109   -0.7448 C   0  0  0  0  0  0  0  0  0  0  0  0
  -31.0728  -16.2251    1.3783 C   0  0  0  0  0  0  0  0  0  0  0  0
  -34.2379  -21.1823    2.9851 C   0  0  0  0  0  0  0  0  0  0  0  0
  -35.7968  -21.4733    4.3501 C   0  0  0  0  0  0  0  0  0  0  0  0
  -30.9923  -19.0377    2.5541 C   0  0  0  0  0  0  0  0  0  0  0  0
  -33.7619  -21.4372    3.0787 C   0  0  0  0  0  0  0  0  0  0  0  0
  -31.2287  -21.7053    5.9212 C   0  0  0  0  0  0  0  0  0  0  0  0
  -34.3604  -20.0236   -0.0384 C   0  0  0  0  0  0  0  0  0  0  0  0
  -31.6461  -18.5368    3.8434 C   0  0  0  0  0  0  0  0  0  0  0  0
  -32.2899  -20.1076    1.1887 C   0  0  0  0  0  0  0  0  0  0  0  0
  -29.9235  -20.4576   -0.4524 C   0  0  0  0  0  0  0  0  0  0  0  0
  -29.6661  -20.9187    0.9841 C   0  0  0  0  0  0  0  0  0  0  0  0
  -33.7981  -21.6438   -0.3264 C   0  0  0  0  0  0  0  0  0  0  0  0
  -33.2140  -23.1482   -1.4199 C   0  0  0  0  0  0  0  0  0  0  0  0
  -32.6328  -23.4552    2.4011 C   0  0  0  0  0  0  0  0  0  0  0  0
  -30.8178  -19.7768    1.2182 C   0  0  0  0  0  0  0  0  0  0  0  0
  -35.2007  -19.2590    0.1637 C   0  0  0  0  0  0  0  0  0  0  0  0
  -34.5586  -20.7845   -1.6354 C   0  0  0  0  0  0  0  0  0  0  0  0
  -33.8986  -18.8398   -1.0985 C   0  0  0  0  0  0  0  0  0  0  0  0
  2 12  1  0  0  0  0
  4  7  1  0  0  0  0
  6 10  1  0  0  0  0
  6 17  1  0  0  0  0
  9 14  1  0  0  0  0
  9 18  1  0  0  0  0
  9 19  1  0  0  0  0
  9 20  1  0  0  0  0
 11 17  1  0  0  0  0
 12 13  1  0  0  0  0
 13 17  1  0  0  0  0
 14 19  1  0  0  0  0
M  END
>  <Score>
-20.062569

>  <Energy>
0.000000

>  <Confidence>
0.000000

>  <Binding_Affinity>
-15.000000

>  <IC50_nM>
0.0

$$$$
ga_pose_4454836400
  PandaDock generated structure

 20 14  0  0  0  0  0  0  0  0999 V2000
  -30.8135  -21.1813   -2.1392 O   0  0  0  0  0  0  0  0  0  0  0  0
  -33.0396  -20.2671    5.1675 C   0  0  0  0  0  0  0  0  0  0  0  0
  -33.0205  -15.9695    0.4560 C   0  0  0  0  0  0  0  0  0  0  0  0
  -32.4930  -19.7103    3.9723 C   0  0  0  0  0  0  0  0  0  0  0  0
  -32.1493  -20.9775    1.7809 C   0  0  0  0  0  0  0  0  0  0  0  0
  -33.4278  -19.9142    2.2969 C   0  0  0  0  0  0  0  0  0  0  0  0
  -36.6373  -22.9728   -0.2638 C   0  0  0  0  0  0  0  0  0  0  0  0
  -35.9200  -20.2942   -3.7485 C   0  0  0  0  0  0  0  0  0  0  0  0
  -31.7773  -23.1473    0.6702 C   0  0  0  0  0  0  0  0  0  0  0  0
  -30.4424  -21.7517   -1.2636 C   0  0  0  0  0  0  0  0  0  0  0  0
  -31.6371  -22.7481    3.6868 C   0  0  0  0  0  0  0  0  0  0  0  0
  -36.3477  -19.4306   -0.5837 C   0  0  0  0  0  0  0  0  0  0  0  0
  -31.9771  -22.5750    2.1958 C   0  0  0  0  0  0  0  0  0  0  0  0
  -32.2871  -19.9065    0.5273 C   0  0  0  0  0  0  0  0  0  0  0  0
  -32.5351  -23.8069    3.3345 C   0  0  0  0  0  0  0  0  0  0  0  0
  -30.2979  -20.2371   -0.3841 C   0  0  0  0  0  0  0  0  0  0  0  0
  -34.2249  -22.8153   -0.1386 C   0  0  0  0  0  0  0  0  0  0  0  0
  -32.2746  -22.4910   -0.2763 C   0  0  0  0  0  0  0  0  0  0  0  0
  -33.9135  -17.6330    3.5422 C   0  0  0  0  0  0  0  0  0  0  0  0
  -31.0549  -22.6507   -1.3337 C   0  0  0  0  0  0  0  0  0  0  0  0
  1 10  1  0  0  0  0
  1 20  1  0  0  0  0
  2  4  1  0  0  0  0
  5  6  1  0  0  0  0
  5 13  1  0  0  0  0
  5 14  1  0  0  0  0
  9 13  1  0  0  0  0
  9 18  1  0  0  0  0
 10 16  1  0  0  0  0
 10 20  1  0  0  0  0
 11 13  1  0  0  0  0
 11 15  1  0  0  0  0
 13 15  1  0  0  0  0
 18 20  1  0  0  0  0
M  END
>  <Score>
-20.062569

>  <Energy>
0.000000

>  <Confidence>
0.000000

>  <Binding_Affinity>
-15.000000

>  <IC50_nM>
0.0

$$$$
ga_pose_4454737904
  PandaDock generated structure

 20  7  0  0  0  0  0  0  0  0999 V2000
  -30.6431  -20.1297    1.8794 O   0  0  0  0  0  0  0  0  0  0  0  0
  -33.8308  -21.2976    3.5351 C   0  0  0  0  0  0  0  0  0  0  0  0
  -30.4429  -22.1494   -4.6038 C   0  0  0  0  0  0  0  0  0  0  0  0
  -33.0869  -19.3023    0.1985 C   0  0  0  0  0  0  0  0  0  0  0  0
  -30.4339  -20.7585   -0.8370 C   0  0  0  0  0  0  0  0  0  0  0  0
  -32.2378  -23.8787    2.5720 C   0  0  0  0  0  0  0  0  0  0  0  0
  -34.6660  -20.0284    2.2619 C   0  0  0  0  0  0  0  0  0  0  0  0
  -40.5133  -18.0011   -4.1575 C   0  0  0  0  0  0  0  0  0  0  0  0
  -31.7451  -21.9623    3.7457 C   0  0  0  0  0  0  0  0  0  0  0  0
  -34.8886  -20.2429   -0.6298 C   0  0  0  0  0  0  0  0  0  0  0  0
  -32.5664  -21.9254    0.2857 C   0  0  0  0  0  0  0  0  0  0  0  0
  -28.3029  -19.5842    2.3610 C   0  0  0  0  0  0  0  0  0  0  0  0
  -33.3706  -20.0183   -1.9860 C   0  0  0  0  0  0  0  0  0  0  0  0
  -34.9485  -20.0883    4.3952 C   0  0  0  0  0  0  0  0  0  0  0  0
  -30.9374  -22.0202    4.2219 C   0  0  0  0  0  0  0  0  0  0  0  0
  -33.0333  -17.9915    0.3324 C   0  0  0  0  0  0  0  0  0  0  0  0
  -33.5485  -20.4670    1.1683 C   0  0  0  0  0  0  0  0  0  0  0  0
  -28.2331  -21.4231   -0.3611 C   0  0  0  0  0  0  0  0  0  0  0  0
  -28.8912  -21.2314   -0.6567 C   0  0  0  0  0  0  0  0  0  0  0  0
  -31.0597  -19.6302    1.7990 C   0  0  0  0  0  0  0  0  0  0  0  0
  1 20  1  0  0  0  0
  4 16  1  0  0  0  0
  4 17  1  0  0  0  0
  5 19  1  0  0  0  0
  7 17  1  0  0  0  0
  9 15  1  0  0  0  0
 18 19  1  0  0  0  0
M  END
>  <Score>
-20.062569

>  <Energy>
0.000000

>  <Confidence>
0.000000

>  <Binding_Affinity>
-15.000000

>  <IC50_nM>
0.0

$$$$
ga_pose_4454868592
  PandaDock generated structure

 20 10  0  0  0  0  0  0  0  0999 V2000
  -34.0874  -16.8505    4.4554 O   0  0  0  0  0  0  0  0  0  0  0  0
  -34.3599  -16.5616    3.2604 C   0  0  0  0  0  0  0  0  0  0  0  0
  -35.0430  -19.7271    1.1863 C   0  0  0  0  0  0  0  0  0  0  0  0
  -30.0108  -23.9562   -1.6351 C   0  0  0  0  0  0  0  0  0  0  0  0
  -29.8603  -19.6311   -1.3645 C   0  0  0  0  0  0  0  0  0  0  0  0
  -34.2066  -22.9870    0.9592 C   0  0  0  0  0  0  0  0  0  0  0  0
  -29.9247  -20.1180   -0.0513 C   0  0  0  0  0  0  0  0  0  0  0  0
  -31.3510  -19.9533    0.5544 C   0  0  0  0  0  0  0  0  0  0  0  0
  -32.3747  -24.9863   -0.1279 C   0  0  0  0  0  0  0  0  0  0  0  0
  -35.2358  -15.6743   -0.3987 C   0  0  0  0  0  0  0  0  0  0  0  0
  -33.7013  -17.9737    1.4711 C   0  0  0  0  0  0  0  0  0  0  0  0
  -32.1580  -20.4013   -2.5703 C   0  0  0  0  0  0  0  0  0  0  0  0
  -30.2987  -21.1588    1.3692 C   0  0  0  0  0  0  0  0  0  0  0  0
  -31.9663  -20.3241   -1.4476 C   0  0  0  0  0  0  0  0  0  0  0  0
  -29.2038  -21.1767   -1.9647 C   0  0  0  0  0  0  0  0  0  0  0  0
  -29.2243  -21.7126   -0.3177 C   0  0  0  0  0  0  0  0  0  0  0  0
  -31.7483  -21.9978    2.9902 C   0  0  0  0  0  0  0  0  0  0  0  0
  -32.9344  -18.7305    1.3558 C   0  0  0  0  0  0  0  0  0  0  0  0
  -32.8543  -20.6288    3.0117 C   0  0  0  0  0  0  0  0  0  0  0  0
  -33.1412  -22.3084   -1.0686 C   0  0  0  0  0  0  0  0  0  0  0  0
  1  2  1  0  0  0  0
  5  7  1  0  0  0  0
  5 15  1  0  0  0  0
  7  8  1  0  0  0  0
  7 16  1  0  0  0  0
  8 13  1  0  0  0  0
 11 18  1  0  0  0  0
 12 14  1  0  0  0  0
 15 16  1  0  0  0  0
 17 19  1  0  0  0  0
M  END
>  <Score>
-20.062569

>  <Energy>
0.000000

>  <Confidence>
0.000000

>  <Binding_Affinity>
-15.000000

>  <IC50_nM>
0.0

$$$$
ga_pose_4454733872
  PandaDock generated structure

 20 10  0  0  0  0  0  0  0  0999 V2000
  -33.8126  -20.3995   -0.4073 O   0  0  0  0  0  0  0  0  0  0  0  0
  -31.0311  -18.4409    2.0613 C   0  0  0  0  0  0  0  0  0  0  0  0
  -31.4740  -24.6765    0.1843 C   0  0  0  0  0  0  0  0  0  0  0  0
  -32.4014  -21.2952    5.4610 C   0  0  0  0  0  0  0  0  0  0  0  0
  -32.4105  -21.3832   -1.0804 C   0  0  0  0  0  0  0  0  0  0  0  0
  -31.4261  -25.3744    1.9916 C   0  0  0  0  0  0  0  0  0  0  0  0
  -31.7540  -24.2180    2.4039 C   0  0  0  0  0  0  0  0  0  0  0  0
  -33.3315  -23.2277    0.8481 C   0  0  0  0  0  0  0  0  0  0  0  0
  -34.3388  -20.8491   -2.5221 C   0  0  0  0  0  0  0  0  0  0  0  0
  -33.9506  -21.1062    3.0686 C   0  0  0  0  0  0  0  0  0  0  0  0
  -33.8403  -17.6799    0.1369 C   0  0  0  0  0  0  0  0  0  0  0  0
  -27.7448  -22.8452    2.0973 C   0  0  0  0  0  0  0  0  0  0  0  0
  -29.6615  -18.5243    2.4824 C   0  0  0  0  0  0  0  0  0  0  0  0
  -32.6653  -20.8419    3.8604 C   0  0  0  0  0  0  0  0  0  0  0  0
  -30.5799  -24.0866    0.5345 C   0  0  0  0  0  0  0  0  0  0  0  0
  -36.6163  -22.5113    1.2052 C   0  0  0  0  0  0  0  0  0  0  0  0
  -31.3857  -21.5224    1.6426 C   0  0  0  0  0  0  0  0  0  0  0  0
  -32.3226  -20.5721    5.6080 C   0  0  0  0  0  0  0  0  0  0  0  0
  -28.6927  -23.7332    2.1165 C   0  0  0  0  0  0  0  0  0  0  0  0
  -32.5401  -19.8923    4.9153 C   0  0  0  0  0  0  0  0  0  0  0  0
  2 13  1  0  0  0  0
  3 15  1  0  0  0  0
  4 14  1  0  0  0  0
  4 18  1  0  0  0  0
  4 20  1  0  0  0  0
  6  7  1  0  0  0  0
 10 14  1  0  0  0  0
 12 19  1  0  0  0  0
 14 20  1  0  0  0  0
 18 20  1  0  0  0  0
M  END
>  <Score>
-20.062569

>  <Energy>
0.000000

>  <Confidence>
0.000000

>  <Binding_Affinity>
-15.000000

>  <IC50_nM>
0.0

$$$$
ga_pose_4454740016
  PandaDock generated structure

 20 12  0  0  0  0  0  0  0  0999 V2000
  -30.7903  -19.2798    0.0447 O   0  0  0  0  0  0  0  0  0  0  0  0
  -34.0324  -19.8832    1.1173 C   0  0  0  0  0  0  0  0  0  0  0  0
  -31.5738  -19.2707   -0.1495 C   0  0  0  0  0  0  0  0  0  0  0  0
  -35.7501  -19.0040    1.5934 C   0  0  0  0  0  0  0  0  0  0  0  0
  -32.3899  -18.4697   -1.7575 C   0  0  0  0  0  0  0  0  0  0  0  0
  -31.7619  -20.7320    0.4709 C   0  0  0  0  0  0  0  0  0  0  0  0
  -33.2991  -20.9382    0.5077 C   0  0  0  0  0  0  0  0  0  0  0  0
  -32.1918  -21.2787   -6.3619 C   0  0  0  0  0  0  0  0  0  0  0  0
  -31.3457  -18.6123    0.6944 C   0  0  0  0  0  0  0  0  0  0  0  0
  -33.1633  -23.4410   -3.5390 C   0  0  0  0  0  0  0  0  0  0  0  0
  -30.1280  -21.7627    2.4823 C   0  0  0  0  0  0  0  0  0  0  0  0
  -29.8693  -22.4379    4.1843 C   0  0  0  0  0  0  0  0  0  0  0  0
  -27.2941  -20.6674    1.6838 C   0  0  0  0  0  0  0  0  0  0  0  0
  -33.2909  -18.6832    0.9143 C   0  0  0  0  0  0  0  0  0  0  0  0
  -34.7920  -20.1347    4.5706 C   0  0  0  0  0  0  0  0  0  0  0  0
  -34.9492  -20.6321   -2.7017 C   0  0  0  0  0  0  0  0  0  0  0  0
  -36.1529  -20.6644   -1.2662 C   0  0  0  0  0  0  0  0  0  0  0  0
  -34.4032  -21.7570    2.1172 C   0  0  0  0  0  0  0  0  0  0  0  0
  -30.8563  -19.4452    0.8159 C   0  0  0  0  0  0  0  0  0  0  0  0
  -34.9011  -22.7996   -1.0461 C   0  0  0  0  0  0  0  0  0  0  0  0
  1  3  1  0  0  0  0
  1  6  1  0  0  0  0
  1  9  1  0  0  0  0
  1 19  1  0  0  0  0
  2  7  1  0  0  0  0
  2 14  1  0  0  0  0
  3  6  1  0  0  0  0
  3  9  1  0  0  0  0
  3 19  1  0  0  0  0
  6  7  1  0  0  0  0
  6 19  1  0  0  0  0
  9 19  1  0  0  0  0
M  END
>  <Score>
-20.062569

>  <Energy>
0.000000

>  <Confidence>
0.000000

>  <Binding_Affinity>
-15.000000

>  <IC50_nM>
0.0

$$$$
ga_pose_4454741456
  PandaDock generated structure

 20  9  0  0  0  0  0  0  0  0999 V2000
  -30.6500  -21.5060   -1.0974 O   0  0  0  0  0  0  0  0  0  0  0  0
  -31.4040  -21.0720    4.0223 C   0  0  0  0  0  0  0  0  0  0  0  0
  -34.4947  -21.0667   -0.5222 C   0  0  0  0  0  0  0  0  0  0  0  0
  -30.9362  -17.8443    3.1232 C   0  0  0  0  0  0  0  0  0  0  0  0
  -31.4177  -19.2785    0.7709 C   0  0  0  0  0  0  0  0  0  0  0  0
  -29.3998  -20.7661    1.0329 C   0  0  0  0  0  0  0  0  0  0  0  0
  -30.2637  -19.1251   -0.2383 C   0  0  0  0  0  0  0  0  0  0  0  0
  -27.5692  -22.4273    0.1998 C   0  0  0  0  0  0  0  0  0  0  0  0
  -34.5433  -19.1345    4.2870 C   0  0  0  0  0  0  0  0  0  0  0  0
  -32.9532  -20.0155    1.6231 C   0  0  0  0  0  0  0  0  0  0  0  0
  -31.2443  -18.9035   -3.2868 C   0  0  0  0  0  0  0  0  0  0  0  0
  -30.9739  -19.3681    1.5580 C   0  0  0  0  0  0  0  0  0  0  0  0
  -35.0340  -24.5629   -0.3988 C   0  0  0  0  0  0  0  0  0  0  0  0
  -35.5308  -17.8484    3.6757 C   0  0  0  0  0  0  0  0  0  0  0  0
  -30.2172  -17.8246   -0.2775 C   0  0  0  0  0  0  0  0  0  0  0  0
  -30.2247  -21.6136   -0.8042 C   0  0  0  0  0  0  0  0  0  0  0  0
  -33.2081  -20.4160    1.2579 C   0  0  0  0  0  0  0  0  0  0  0  0
  -34.3524  -19.7765   -0.3581 C   0  0  0  0  0  0  0  0  0  0  0  0
  -31.9819  -17.8951   -1.6775 C   0  0  0  0  0  0  0  0  0  0  0  0
  -29.4469  -20.0261    0.7780 C   0  0  0  0  0  0  0  0  0  0  0  0
  1 16  1  0  0  0  0
  3 18  1  0  0  0  0
  5  7  1  0  0  0  0
  5 12  1  0  0  0  0
  6 20  1  0  0  0  0
  7 15  1  0  0  0  0
  7 20  1  0  0  0  0
  9 14  1  0  0  0  0
 10 17  1  0  0  0  0
M  END
>  <Score>
-20.062569

>  <Energy>
0.000000

>  <Confidence>
0.000000

>  <Binding_Affinity>
-15.000000

>  <IC50_nM>
0.0

$$$$
ga_pose_4454743856
  PandaDock generated structure

 20 14  0  0  0  0  0  0  0  0999 V2000
  -33.4428  -24.1912    0.1885 O   0  0  0  0  0  0  0  0  0  0  0  0
  -32.2059  -21.3890    3.1734 C   0  0  0  0  0  0  0  0  0  0  0  0
  -34.3071  -21.3983   -1.0802 C   0  0  0  0  0  0  0  0  0  0  0  0
  -31.6715  -23.6145    4.1348 C   0  0  0  0  0  0  0  0  0  0  0  0
  -32.1370  -24.9588    0.6936 C   0  0  0  0  0  0  0  0  0  0  0  0
  -34.0127  -18.0396    0.8882 C   0  0  0  0  0  0  0  0  0  0  0  0
  -29.3504  -19.5671   -1.3690 C   0  0  0  0  0  0  0  0  0  0  0  0
  -33.0745  -15.9072    1.3479 C   0  0  0  0  0  0  0  0  0  0  0  0
  -34.1237  -20.6908    4.1232 C   0  0  0  0  0  0  0  0  0  0  0  0
  -32.5055  -23.1478    1.1819 C   0  0  0  0  0  0  0  0  0  0  0  0
  -34.7896  -22.0340   -2.2509 C   0  0  0  0  0  0  0  0  0  0  0  0
  -32.6748  -18.6801    1.7658 C   0  0  0  0  0  0  0  0  0  0  0  0
  -30.7397  -21.2483    3.7943 C   0  0  0  0  0  0  0  0  0  0  0  0
  -29.5341  -19.0899    2.6386 C   0  0  0  0  0  0  0  0  0  0  0  0
  -33.1533  -20.7179    2.8967 C   0  0  0  0  0  0  0  0  0  0  0  0
  -32.5274  -24.1479    3.8734 C   0  0  0  0  0  0  0  0  0  0  0  0
  -34.4410  -22.8633   -0.4412 C   0  0  0  0  0  0  0  0  0  0  0  0
  -32.1337  -17.5656   -2.8531 C   0  0  0  0  0  0  0  0  0  0  0  0
  -32.3813  -19.8677    3.0750 C   0  0  0  0  0  0  0  0  0  0  0  0
  -34.2870  -18.0415    0.8831 C   0  0  0  0  0  0  0  0  0  0  0  0
  1  5  1  0  0  0  0
  1 10  1  0  0  0  0
  1 17  1  0  0  0  0
  2 13  1  0  0  0  0
  2 15  1  0  0  0  0
  2 19  1  0  0  0  0
  3 11  1  0  0  0  0
  3 17  1  0  0  0  0
  4 16  1  0  0  0  0
  6 12  1  0  0  0  0
  6 20  1  0  0  0  0
  9 15  1  0  0  0  0
 12 19  1  0  0  0  0
 15 19  1  0  0  0  0
M  END
>  <Score>
-20.062569

>  <Energy>
0.000000

>  <Confidence>
0.000000

>  <Binding_Affinity>
-15.000000

>  <IC50_nM>
0.0

$$$$
