ga_pose_4454733872
  PandaDock generated structure

 20 10  0  0  0  0  0  0  0  0999 V2000
  -33.8126  -20.3995   -0.4073 O   0  0  0  0  0  0  0  0  0  0  0  0
  -31.0311  -18.4409    2.0613 C   0  0  0  0  0  0  0  0  0  0  0  0
  -31.4740  -24.6765    0.1843 C   0  0  0  0  0  0  0  0  0  0  0  0
  -32.4014  -21.2952    5.4610 C   0  0  0  0  0  0  0  0  0  0  0  0
  -32.4105  -21.3832   -1.0804 C   0  0  0  0  0  0  0  0  0  0  0  0
  -31.4261  -25.3744    1.9916 C   0  0  0  0  0  0  0  0  0  0  0  0
  -31.7540  -24.2180    2.4039 C   0  0  0  0  0  0  0  0  0  0  0  0
  -33.3315  -23.2277    0.8481 C   0  0  0  0  0  0  0  0  0  0  0  0
  -34.3388  -20.8491   -2.5221 C   0  0  0  0  0  0  0  0  0  0  0  0
  -33.9506  -21.1062    3.0686 C   0  0  0  0  0  0  0  0  0  0  0  0
  -33.8403  -17.6799    0.1369 C   0  0  0  0  0  0  0  0  0  0  0  0
  -27.7448  -22.8452    2.0973 C   0  0  0  0  0  0  0  0  0  0  0  0
  -29.6615  -18.5243    2.4824 C   0  0  0  0  0  0  0  0  0  0  0  0
  -32.6653  -20.8419    3.8604 C   0  0  0  0  0  0  0  0  0  0  0  0
  -30.5799  -24.0866    0.5345 C   0  0  0  0  0  0  0  0  0  0  0  0
  -36.6163  -22.5113    1.2052 C   0  0  0  0  0  0  0  0  0  0  0  0
  -31.3857  -21.5224    1.6426 C   0  0  0  0  0  0  0  0  0  0  0  0
  -32.3226  -20.5721    5.6080 C   0  0  0  0  0  0  0  0  0  0  0  0
  -28.6927  -23.7332    2.1165 C   0  0  0  0  0  0  0  0  0  0  0  0
  -32.5401  -19.8923    4.9153 C   0  0  0  0  0  0  0  0  0  0  0  0
  2 13  1  0  0  0  0
  3 15  1  0  0  0  0
  4 14  1  0  0  0  0
  4 18  1  0  0  0  0
  4 20  1  0  0  0  0
  6  7  1  0  0  0  0
 10 14  1  0  0  0  0
 12 19  1  0  0  0  0
 14 20  1  0  0  0  0
 18 20  1  0  0  0  0
M  END
>  <Score>
-20.062569

>  <Energy>
0.000000

>  <Confidence>
0.000000

>  <Binding_Affinity>
-15.000000

>  <IC50_nM>
0.0

$$$$
