ga_pose_4454836400
  PandaDock generated structure

 20 14  0  0  0  0  0  0  0  0999 V2000
  -30.8135  -21.1813   -2.1392 O   0  0  0  0  0  0  0  0  0  0  0  0
  -33.0396  -20.2671    5.1675 C   0  0  0  0  0  0  0  0  0  0  0  0
  -33.0205  -15.9695    0.4560 C   0  0  0  0  0  0  0  0  0  0  0  0
  -32.4930  -19.7103    3.9723 C   0  0  0  0  0  0  0  0  0  0  0  0
  -32.1493  -20.9775    1.7809 C   0  0  0  0  0  0  0  0  0  0  0  0
  -33.4278  -19.9142    2.2969 C   0  0  0  0  0  0  0  0  0  0  0  0
  -36.6373  -22.9728   -0.2638 C   0  0  0  0  0  0  0  0  0  0  0  0
  -35.9200  -20.2942   -3.7485 C   0  0  0  0  0  0  0  0  0  0  0  0
  -31.7773  -23.1473    0.6702 C   0  0  0  0  0  0  0  0  0  0  0  0
  -30.4424  -21.7517   -1.2636 C   0  0  0  0  0  0  0  0  0  0  0  0
  -31.6371  -22.7481    3.6868 C   0  0  0  0  0  0  0  0  0  0  0  0
  -36.3477  -19.4306   -0.5837 C   0  0  0  0  0  0  0  0  0  0  0  0
  -31.9771  -22.5750    2.1958 C   0  0  0  0  0  0  0  0  0  0  0  0
  -32.2871  -19.9065    0.5273 C   0  0  0  0  0  0  0  0  0  0  0  0
  -32.5351  -23.8069    3.3345 C   0  0  0  0  0  0  0  0  0  0  0  0
  -30.2979  -20.2371   -0.3841 C   0  0  0  0  0  0  0  0  0  0  0  0
  -34.2249  -22.8153   -0.1386 C   0  0  0  0  0  0  0  0  0  0  0  0
  -32.2746  -22.4910   -0.2763 C   0  0  0  0  0  0  0  0  0  0  0  0
  -33.9135  -17.6330    3.5422 C   0  0  0  0  0  0  0  0  0  0  0  0
  -31.0549  -22.6507   -1.3337 C   0  0  0  0  0  0  0  0  0  0  0  0
  1 10  1  0  0  0  0
  1 20  1  0  0  0  0
  2  4  1  0  0  0  0
  5  6  1  0  0  0  0
  5 13  1  0  0  0  0
  5 14  1  0  0  0  0
  9 13  1  0  0  0  0
  9 18  1  0  0  0  0
 10 16  1  0  0  0  0
 10 20  1  0  0  0  0
 11 13  1  0  0  0  0
 11 15  1  0  0  0  0
 13 15  1  0  0  0  0
 18 20  1  0  0  0  0
M  END
>  <Score>
-20.062569

>  <Energy>
0.000000

>  <Confidence>
0.000000

>  <Binding_Affinity>
-15.000000

>  <IC50_nM>
0.0

$$$$
