ga_pose_4454740016
  PandaDock generated structure

 20 12  0  0  0  0  0  0  0  0999 V2000
  -30.7903  -19.2798    0.0447 O   0  0  0  0  0  0  0  0  0  0  0  0
  -34.0324  -19.8832    1.1173 C   0  0  0  0  0  0  0  0  0  0  0  0
  -31.5738  -19.2707   -0.1495 C   0  0  0  0  0  0  0  0  0  0  0  0
  -35.7501  -19.0040    1.5934 C   0  0  0  0  0  0  0  0  0  0  0  0
  -32.3899  -18.4697   -1.7575 C   0  0  0  0  0  0  0  0  0  0  0  0
  -31.7619  -20.7320    0.4709 C   0  0  0  0  0  0  0  0  0  0  0  0
  -33.2991  -20.9382    0.5077 C   0  0  0  0  0  0  0  0  0  0  0  0
  -32.1918  -21.2787   -6.3619 C   0  0  0  0  0  0  0  0  0  0  0  0
  -31.3457  -18.6123    0.6944 C   0  0  0  0  0  0  0  0  0  0  0  0
  -33.1633  -23.4410   -3.5390 C   0  0  0  0  0  0  0  0  0  0  0  0
  -30.1280  -21.7627    2.4823 C   0  0  0  0  0  0  0  0  0  0  0  0
  -29.8693  -22.4379    4.1843 C   0  0  0  0  0  0  0  0  0  0  0  0
  -27.2941  -20.6674    1.6838 C   0  0  0  0  0  0  0  0  0  0  0  0
  -33.2909  -18.6832    0.9143 C   0  0  0  0  0  0  0  0  0  0  0  0
  -34.7920  -20.1347    4.5706 C   0  0  0  0  0  0  0  0  0  0  0  0
  -34.9492  -20.6321   -2.7017 C   0  0  0  0  0  0  0  0  0  0  0  0
  -36.1529  -20.6644   -1.2662 C   0  0  0  0  0  0  0  0  0  0  0  0
  -34.4032  -21.7570    2.1172 C   0  0  0  0  0  0  0  0  0  0  0  0
  -30.8563  -19.4452    0.8159 C   0  0  0  0  0  0  0  0  0  0  0  0
  -34.9011  -22.7996   -1.0461 C   0  0  0  0  0  0  0  0  0  0  0  0
  1  3  1  0  0  0  0
  1  6  1  0  0  0  0
  1  9  1  0  0  0  0
  1 19  1  0  0  0  0
  2  7  1  0  0  0  0
  2 14  1  0  0  0  0
  3  6  1  0  0  0  0
  3  9  1  0  0  0  0
  3 19  1  0  0  0  0
  6  7  1  0  0  0  0
  6 19  1  0  0  0  0
  9 19  1  0  0  0  0
M  END
>  <Score>
-20.062569

>  <Energy>
0.000000

>  <Confidence>
0.000000

>  <Binding_Affinity>
-15.000000

>  <IC50_nM>
0.0

$$$$
