ga_pose_4454743856
  PandaDock generated structure

 20 14  0  0  0  0  0  0  0  0999 V2000
  -33.4428  -24.1912    0.1885 O   0  0  0  0  0  0  0  0  0  0  0  0
  -32.2059  -21.3890    3.1734 C   0  0  0  0  0  0  0  0  0  0  0  0
  -34.3071  -21.3983   -1.0802 C   0  0  0  0  0  0  0  0  0  0  0  0
  -31.6715  -23.6145    4.1348 C   0  0  0  0  0  0  0  0  0  0  0  0
  -32.1370  -24.9588    0.6936 C   0  0  0  0  0  0  0  0  0  0  0  0
  -34.0127  -18.0396    0.8882 C   0  0  0  0  0  0  0  0  0  0  0  0
  -29.3504  -19.5671   -1.3690 C   0  0  0  0  0  0  0  0  0  0  0  0
  -33.0745  -15.9072    1.3479 C   0  0  0  0  0  0  0  0  0  0  0  0
  -34.1237  -20.6908    4.1232 C   0  0  0  0  0  0  0  0  0  0  0  0
  -32.5055  -23.1478    1.1819 C   0  0  0  0  0  0  0  0  0  0  0  0
  -34.7896  -22.0340   -2.2509 C   0  0  0  0  0  0  0  0  0  0  0  0
  -32.6748  -18.6801    1.7658 C   0  0  0  0  0  0  0  0  0  0  0  0
  -30.7397  -21.2483    3.7943 C   0  0  0  0  0  0  0  0  0  0  0  0
  -29.5341  -19.0899    2.6386 C   0  0  0  0  0  0  0  0  0  0  0  0
  -33.1533  -20.7179    2.8967 C   0  0  0  0  0  0  0  0  0  0  0  0
  -32.5274  -24.1479    3.8734 C   0  0  0  0  0  0  0  0  0  0  0  0
  -34.4410  -22.8633   -0.4412 C   0  0  0  0  0  0  0  0  0  0  0  0
  -32.1337  -17.5656   -2.8531 C   0  0  0  0  0  0  0  0  0  0  0  0
  -32.3813  -19.8677    3.0750 C   0  0  0  0  0  0  0  0  0  0  0  0
  -34.2870  -18.0415    0.8831 C   0  0  0  0  0  0  0  0  0  0  0  0
  1  5  1  0  0  0  0
  1 10  1  0  0  0  0
  1 17  1  0  0  0  0
  2 13  1  0  0  0  0
  2 15  1  0  0  0  0
  2 19  1  0  0  0  0
  3 11  1  0  0  0  0
  3 17  1  0  0  0  0
  4 16  1  0  0  0  0
  6 12  1  0  0  0  0
  6 20  1  0  0  0  0
  9 15  1  0  0  0  0
 12 19  1  0  0  0  0
 15 19  1  0  0  0  0
M  END
>  <Score>
-20.062569

>  <Energy>
0.000000

>  <Confidence>
0.000000

>  <Binding_Affinity>
-15.000000

>  <IC50_nM>
0.0

$$$$
