ga_pose_4454737904
  PandaDock generated structure

 20  7  0  0  0  0  0  0  0  0999 V2000
  -30.6431  -20.1297    1.8794 O   0  0  0  0  0  0  0  0  0  0  0  0
  -33.8308  -21.2976    3.5351 C   0  0  0  0  0  0  0  0  0  0  0  0
  -30.4429  -22.1494   -4.6038 C   0  0  0  0  0  0  0  0  0  0  0  0
  -33.0869  -19.3023    0.1985 C   0  0  0  0  0  0  0  0  0  0  0  0
  -30.4339  -20.7585   -0.8370 C   0  0  0  0  0  0  0  0  0  0  0  0
  -32.2378  -23.8787    2.5720 C   0  0  0  0  0  0  0  0  0  0  0  0
  -34.6660  -20.0284    2.2619 C   0  0  0  0  0  0  0  0  0  0  0  0
  -40.5133  -18.0011   -4.1575 C   0  0  0  0  0  0  0  0  0  0  0  0
  -31.7451  -21.9623    3.7457 C   0  0  0  0  0  0  0  0  0  0  0  0
  -34.8886  -20.2429   -0.6298 C   0  0  0  0  0  0  0  0  0  0  0  0
  -32.5664  -21.9254    0.2857 C   0  0  0  0  0  0  0  0  0  0  0  0
  -28.3029  -19.5842    2.3610 C   0  0  0  0  0  0  0  0  0  0  0  0
  -33.3706  -20.0183   -1.9860 C   0  0  0  0  0  0  0  0  0  0  0  0
  -34.9485  -20.0883    4.3952 C   0  0  0  0  0  0  0  0  0  0  0  0
  -30.9374  -22.0202    4.2219 C   0  0  0  0  0  0  0  0  0  0  0  0
  -33.0333  -17.9915    0.3324 C   0  0  0  0  0  0  0  0  0  0  0  0
  -33.5485  -20.4670    1.1683 C   0  0  0  0  0  0  0  0  0  0  0  0
  -28.2331  -21.4231   -0.3611 C   0  0  0  0  0  0  0  0  0  0  0  0
  -28.8912  -21.2314   -0.6567 C   0  0  0  0  0  0  0  0  0  0  0  0
  -31.0597  -19.6302    1.7990 C   0  0  0  0  0  0  0  0  0  0  0  0
  1 20  1  0  0  0  0
  4 16  1  0  0  0  0
  4 17  1  0  0  0  0
  5 19  1  0  0  0  0
  7 17  1  0  0  0  0
  9 15  1  0  0  0  0
 18 19  1  0  0  0  0
M  END
>  <Score>
-20.062569

>  <Energy>
0.000000

>  <Confidence>
0.000000

>  <Binding_Affinity>
-15.000000

>  <IC50_nM>
0.0

$$$$
