ga_pose_4454859088
  PandaDock generated structure

 20 11  0  0  0  0  0  0  0  0999 V2000
  -33.8342  -19.5672   -3.1045 O   0  0  0  0  0  0  0  0  0  0  0  0
  -33.2166  -19.4171    4.7281 C   0  0  0  0  0  0  0  0  0  0  0  0
  -35.6222  -19.7949    0.2800 C   0  0  0  0  0  0  0  0  0  0  0  0
  -30.9750  -22.2592    2.6693 C   0  0  0  0  0  0  0  0  0  0  0  0
  -34.9040  -19.0391    1.1083 C   0  0  0  0  0  0  0  0  0  0  0  0
  -32.1717  -20.8236   -0.9596 C   0  0  0  0  0  0  0  0  0  0  0  0
  -32.2655  -19.6442    4.3612 C   0  0  0  0  0  0  0  0  0  0  0  0
  -30.5283  -24.6285    4.8826 C   0  0  0  0  0  0  0  0  0  0  0  0
  -31.2349  -19.3115    1.0152 C   0  0  0  0  0  0  0  0  0  0  0  0
  -34.5737  -19.9235    1.7014 C   0  0  0  0  0  0  0  0  0  0  0  0
  -31.6308  -24.0073    1.6195 C   0  0  0  0  0  0  0  0  0  0  0  0
  -31.1681  -23.6966    5.2723 C   0  0  0  0  0  0  0  0  0  0  0  0
  -29.1128  -20.0455    0.7546 C   0  0  0  0  0  0  0  0  0  0  0  0
  -34.1061  -20.6025   -1.8561 C   0  0  0  0  0  0  0  0  0  0  0  0
  -35.7182  -19.4763   -1.0559 C   0  0  0  0  0  0  0  0  0  0  0  0
  -29.0923  -20.0006   -2.7377 C   0  0  0  0  0  0  0  0  0  0  0  0
  -33.3185  -21.5213   -2.7507 C   0  0  0  0  0  0  0  0  0  0  0  0
  -35.7690  -22.9524    3.0799 C   0  0  0  0  0  0  0  0  0  0  0  0
  -33.3870  -19.8232    3.6149 C   0  0  0  0  0  0  0  0  0  0  0  0
  -34.1079  -20.7267    1.7434 C   0  0  0  0  0  0  0  0  0  0  0  0
  1 14  1  0  0  0  0
  2  7  1  0  0  0  0
  2 19  1  0  0  0  0
  3  5  1  0  0  0  0
  3 10  1  0  0  0  0
  3 15  1  0  0  0  0
  5 10  1  0  0  0  0
  7 19  1  0  0  0  0
  8 12  1  0  0  0  0
 10 20  1  0  0  0  0
 14 17  1  0  0  0  0
M  END
>  <Score>
-20.062569

>  <Energy>
0.000000

>  <Confidence>
0.000000

>  <Binding_Affinity>
-15.000000

>  <IC50_nM>
0.0

$$$$
