ga_pose_4454803248
  PandaDock generated structure

 20  6  0  0  0  0  0  0  0  0999 V2000
  -30.9997  -21.8828   -0.7679 O   0  0  0  0  0  0  0  0  0  0  0  0
  -30.6139  -20.7974    3.1223 C   0  0  0  0  0  0  0  0  0  0  0  0
  -31.0878  -21.6772    2.2654 C   0  0  0  0  0  0  0  0  0  0  0  0
  -33.3243  -20.3332    0.5583 C   0  0  0  0  0  0  0  0  0  0  0  0
  -32.5790  -20.7768   -1.3919 C   0  0  0  0  0  0  0  0  0  0  0  0
  -37.8845  -17.8822    1.3814 C   0  0  0  0  0  0  0  0  0  0  0  0
  -30.8614  -18.8487   -2.3278 C   0  0  0  0  0  0  0  0  0  0  0  0
  -32.7286  -19.5671    0.8135 C   0  0  0  0  0  0  0  0  0  0  0  0
  -34.3655  -17.9463    3.6789 C   0  0  0  0  0  0  0  0  0  0  0  0
  -31.3655  -18.7746    0.7285 C   0  0  0  0  0  0  0  0  0  0  0  0
  -29.4443  -20.5456   -0.0240 C   0  0  0  0  0  0  0  0  0  0  0  0
  -34.9418  -23.0068    1.2674 C   0  0  0  0  0  0  0  0  0  0  0  0
  -31.6904  -17.7158   -2.5804 C   0  0  0  0  0  0  0  0  0  0  0  0
  -34.2432  -16.8007    5.3736 C   0  0  0  0  0  0  0  0  0  0  0  0
  -33.6516  -17.0249   -0.3861 C   0  0  0  0  0  0  0  0  0  0  0  0
  -32.0795  -17.4145    3.0522 C   0  0  0  0  0  0  0  0  0  0  0  0
  -33.8263  -22.0923    3.1507 C   0  0  0  0  0  0  0  0  0  0  0  0
  -33.2186  -17.9842    1.7126 C   0  0  0  0  0  0  0  0  0  0  0  0
  -34.4520  -18.4473   -1.4752 C   0  0  0  0  0  0  0  0  0  0  0  0
  -30.7160  -22.1634    2.1300 C   0  0  0  0  0  0  0  0  0  0  0  0
  2  3  1  0  0  0  0
  2 20  1  0  0  0  0
  3 20  1  0  0  0  0
  4  8  1  0  0  0  0
  7 13  1  0  0  0  0
  8 10  1  0  0  0  0
M  END
>  <Score>
-20.062569

>  <Energy>
0.000000

>  <Confidence>
0.000000

>  <Binding_Affinity>
-15.000000

>  <IC50_nM>
0.0

$$$$
