ml_pose_25
  PandaDock generated structure

 13 13  0  0  0  0  0  0  0  0999 V2000
  -15.3777  -18.0286   10.2065 O   0  0  0  0  0  0  0  0  0  0  0  0
  -15.5198  -17.7046    8.7361 C   0  0  0  0  0  0  0  0  0  0  0  0
  -16.8884  -17.4165    8.3104 C   0  0  0  0  0  0  0  0  0  0  0  0
  -14.5394  -18.0343    7.8377 C   0  0  0  0  0  0  0  0  0  0  0  0
  -17.0922  -17.1743    6.9563 C   0  0  0  0  0  0  0  0  0  0  0  0
  -17.9491  -17.0814    9.3249 C   0  0  0  0  0  0  0  0  0  0  0  0
  -16.1636  -17.4755    6.0695 C   0  0  0  0  0  0  0  0  0  0  0  0
  -14.8469  -17.7388    6.4845 C   0  0  0  0  0  0  0  0  0  0  0  0
  -13.2148  -18.5073    8.2630 C   0  0  0  0  0  0  0  0  0  0  0  0
  -18.0267  -15.6026    9.6456 C   0  0  0  0  0  0  0  0  0  0  0  0
  -19.2602  -17.7067    8.8702 C   0  0  0  0  0  0  0  0  0  0  0  0
  -13.0586  -20.0118    7.9569 C   0  0  0  0  0  0  0  0  0  0  0  0
  -12.1626  -17.6174    7.6784 C   0  0  0  0  0  0  0  0  0  0  0  0
  1  2  1  0  0  0  0
  2  3  1  0  0  0  0
  2  4  1  0  0  0  0
  3  5  1  0  0  0  0
  3  6  1  0  0  0  0
  4  8  1  0  0  0  0
  4  9  1  0  0  0  0
  5  7  1  0  0  0  0
  6 10  1  0  0  0  0
  6 11  1  0  0  0  0
  7  8  1  0  0  0  0
  9 12  1  0  0  0  0
  9 13  1  0  0  0  0
M  END
>  <Score>
0.186051

>  <Energy>
-7.707653

>  <Confidence>
0.813949

>  <Binding_Affinity>
-3.227581

>  <IC50_nM>
4304505.1

$$$$
