ml_pose_12
  PandaDock generated structure

 13 13  0  0  0  0  0  0  0  0999 V2000
  -15.9178  -18.8956    6.7150 O   0  0  0  0  0  0  0  0  0  0  0  0
  -15.8129  -18.1358    7.6753 C   0  0  0  0  0  0  0  0  0  0  0  0
  -16.5041  -16.9929    7.8168 C   0  0  0  0  0  0  0  0  0  0  0  0
  -14.8051  -18.3130    8.7228 C   0  0  0  0  0  0  0  0  0  0  0  0
  -16.4705  -16.0957    8.9192 C   0  0  0  0  0  0  0  0  0  0  0  0
  -17.5575  -16.6291    6.7734 C   0  0  0  0  0  0  0  0  0  0  0  0
  -15.4921  -16.3007    9.8737 C   0  0  0  0  0  0  0  0  0  0  0  0
  -14.6506  -17.5156    9.7425 C   0  0  0  0  0  0  0  0  0  0  0  0
  -13.8761  -19.5112    8.5082 C   0  0  0  0  0  0  0  0  0  0  0  0
  -19.0318  -17.0523    7.1875 C   0  0  0  0  0  0  0  0  0  0  0  0
  -17.5251  -15.1162    6.3556 C   0  0  0  0  0  0  0  0  0  0  0  0
  -12.5216  -19.1916    8.1997 C   0  0  0  0  0  0  0  0  0  0  0  0
  -13.9348  -20.3504    9.8504 C   0  0  0  0  0  0  0  0  0  0  0  0
  1  2  1  0  0  0  0
  2  3  1  0  0  0  0
  2  4  1  0  0  0  0
  3  5  1  0  0  0  0
  3  6  1  0  0  0  0
  4  8  1  0  0  0  0
  4  9  1  0  0  0  0
  5  7  1  0  0  0  0
  6 10  1  0  0  0  0
  6 11  1  0  0  0  0
  7  8  1  0  0  0  0
  9 12  1  0  0  0  0
  9 13  1  0  0  0  0
M  END
>  <Score>
0.196526

>  <Energy>
-6.888398

>  <Confidence>
0.803474

>  <Binding_Affinity>
-3.074206

>  <IC50_nM>
5576476.5

$$$$
