ml_pose_15
  PandaDock generated structure

 13 13  0  0  0  0  0  0  0  0999 V2000
  -13.7258  -17.9417    8.3528 O   0  0  0  0  0  0  0  0  0  0  0  0
  -15.0816  -17.6942    8.2447 C   0  0  0  0  0  0  0  0  0  0  0  0
  -15.9456  -18.5867    8.9179 C   0  0  0  0  0  0  0  0  0  0  0  0
  -15.6206  -16.7860    7.3950 C   0  0  0  0  0  0  0  0  0  0  0  0
  -17.4029  -18.4573    8.9051 C   0  0  0  0  0  0  0  0  0  0  0  0
  -15.3613  -19.7154    9.7954 C   0  0  0  0  0  0  0  0  0  0  0  0
  -17.8137  -17.5020    7.9880 C   0  0  0  0  0  0  0  0  0  0  0  0
  -16.9887  -16.6780    7.3124 C   0  0  0  0  0  0  0  0  0  0  0  0
  -14.7486  -15.9176    6.5250 C   0  0  0  0  0  0  0  0  0  0  0  0
  -15.3601  -19.2206   11.2439 C   0  0  0  0  0  0  0  0  0  0  0  0
  -16.0386  -21.0770    9.7004 C   0  0  0  0  0  0  0  0  0  0  0  0
  -14.7997  -16.2026    5.1357 C   0  0  0  0  0  0  0  0  0  0  0  0
  -15.2129  -14.3209    6.8237 C   0  0  0  0  0  0  0  0  0  0  0  0
  1  2  1  0  0  0  0
  2  3  1  0  0  0  0
  2  4  1  0  0  0  0
  3  5  1  0  0  0  0
  3  6  1  0  0  0  0
  4  8  1  0  0  0  0
  4  9  1  0  0  0  0
  5  7  1  0  0  0  0
  6 10  1  0  0  0  0
  6 11  1  0  0  0  0
  7  8  1  0  0  0  0
  9 12  1  0  0  0  0
  9 13  1  0  0  0  0
M  END
>  <Score>
0.196622

>  <Energy>
-5.710886

>  <Confidence>
0.803378

>  <Binding_Affinity>
-3.000000

>  <IC50_nM>
6320605.5

$$$$
