ml_pose_27
  PandaDock generated structure

 13 13  0  0  0  0  0  0  0  0999 V2000
  -16.8755  -19.5061    8.1489 O   0  0  0  0  0  0  0  0  0  0  0  0
  -16.1197  -18.1785    8.1144 C   0  0  0  0  0  0  0  0  0  0  0  0
  -15.3428  -17.7848    9.4188 C   0  0  0  0  0  0  0  0  0  0  0  0
  -15.9088  -17.4065    7.1034 C   0  0  0  0  0  0  0  0  0  0  0  0
  -14.6936  -16.6943    9.3922 C   0  0  0  0  0  0  0  0  0  0  0  0
  -15.5280  -18.7018   10.6187 C   0  0  0  0  0  0  0  0  0  0  0  0
  -14.4770  -15.8908    8.2634 C   0  0  0  0  0  0  0  0  0  0  0  0
  -15.1448  -16.1908    7.0896 C   0  0  0  0  0  0  0  0  0  0  0  0
  -16.5339  -17.7742    5.7013 C   0  0  0  0  0  0  0  0  0  0  0  0
  -14.2976  -19.5594   10.7329 C   0  0  0  0  0  0  0  0  0  0  0  0
  -15.8381  -17.8067   11.7628 C   0  0  0  0  0  0  0  0  0  0  0  0
  -17.8425  -16.8730    5.3988 C   0  0  0  0  0  0  0  0  0  0  0  0
  -15.4978  -17.7332    4.5948 C   0  0  0  0  0  0  0  0  0  0  0  0
  1  2  1  0  0  0  0
  2  3  1  0  0  0  0
  2  4  1  0  0  0  0
  3  5  1  0  0  0  0
  3  6  1  0  0  0  0
  4  8  1  0  0  0  0
  4  9  1  0  0  0  0
  5  7  1  0  0  0  0
  6 10  1  0  0  0  0
  6 11  1  0  0  0  0
  7  8  1  0  0  0  0
  9 12  1  0  0  0  0
  9 13  1  0  0  0  0
M  END
>  <Score>
0.107068

>  <Energy>
-5.577331

>  <Confidence>
0.892932

>  <Binding_Affinity>
-11.109680

>  <IC50_nM>
7.2

$$$$
