ml_pose_23
  PandaDock generated structure

 13 13  0  0  0  0  0  0  0  0999 V2000
  -14.2308  -18.7073    9.0068 O   0  0  0  0  0  0  0  0  0  0  0  0
  -15.1784  -18.0289    8.4779 C   0  0  0  0  0  0  0  0  0  0  0  0
  -16.4513  -17.8934    9.0887 C   0  0  0  0  0  0  0  0  0  0  0  0
  -15.0527  -17.3994    7.2003 C   0  0  0  0  0  0  0  0  0  0  0  0
  -17.5661  -17.1934    8.4705 C   0  0  0  0  0  0  0  0  0  0  0  0
  -16.7313  -18.6681   10.4281 C   0  0  0  0  0  0  0  0  0  0  0  0
  -17.3208  -16.4872    7.1817 C   0  0  0  0  0  0  0  0  0  0  0  0
  -16.0532  -16.5790    6.5820 C   0  0  0  0  0  0  0  0  0  0  0  0
  -13.7346  -17.5837    6.4949 C   0  0  0  0  0  0  0  0  0  0  0  0
  -16.6619  -17.6984   11.5109 C   0  0  0  0  0  0  0  0  0  0  0  0
  -18.0745  -19.3203   10.4339 C   0  0  0  0  0  0  0  0  0  0  0  0
  -13.7863  -18.4232    5.3624 C   0  0  0  0  0  0  0  0  0  0  0  0
  -13.2580  -16.1176    6.1019 C   0  0  0  0  0  0  0  0  0  0  0  0
  1  2  1  0  0  0  0
  2  3  1  0  0  0  0
  2  4  1  0  0  0  0
  3  5  1  0  0  0  0
  3  6  1  0  0  0  0
  4  8  1  0  0  0  0
  4  9  1  0  0  0  0
  5  7  1  0  0  0  0
  6 10  1  0  0  0  0
  6 11  1  0  0  0  0
  7  8  1  0  0  0  0
  9 12  1  0  0  0  0
  9 13  1  0  0  0  0
M  END
>  <Score>
0.165680

>  <Energy>
-7.832996

>  <Confidence>
0.834320

>  <Binding_Affinity>
-4.879086

>  <IC50_nM>
264994.9

$$$$
