ml_pose_11
  PandaDock generated structure

 13 13  0  0  0  0  0  0  0  0999 V2000
  -16.4730  -18.5213    9.7976 O   0  0  0  0  0  0  0  0  0  0  0  0
  -15.9379  -17.9232    8.7291 C   0  0  0  0  0  0  0  0  0  0  0  0
  -16.1859  -16.5381    8.4730 C   0  0  0  0  0  0  0  0  0  0  0  0
  -15.1752  -18.7745    7.7742 C   0  0  0  0  0  0  0  0  0  0  0  0
  -15.6221  -16.1029    7.2223 C   0  0  0  0  0  0  0  0  0  0  0  0
  -17.0015  -15.6893    9.3149 C   0  0  0  0  0  0  0  0  0  0  0  0
  -14.8810  -16.8004    6.3692 C   0  0  0  0  0  0  0  0  0  0  0  0
  -14.6884  -18.2018    6.6395 C   0  0  0  0  0  0  0  0  0  0  0  0
  -14.9219  -20.1308    8.0159 C   0  0  0  0  0  0  0  0  0  0  0  0
  -16.1312  -14.9793   10.1897 C   0  0  0  0  0  0  0  0  0  0  0  0
  -17.9170  -14.8916    8.4877 C   0  0  0  0  0  0  0  0  0  0  0  0
  -15.7412  -21.0633    7.2683 C   0  0  0  0  0  0  0  0  0  0  0  0
  -13.4238  -20.4835    8.0585 C   0  0  0  0  0  0  0  0  0  0  0  0
  1  2  1  0  0  0  0
  2  3  1  0  0  0  0
  2  4  1  0  0  0  0
  3  5  1  0  0  0  0
  3  6  1  0  0  0  0
  4  8  1  0  0  0  0
  4  9  1  0  0  0  0
  5  7  1  0  0  0  0
  6 10  1  0  0  0  0
  6 11  1  0  0  0  0
  7  8  1  0  0  0  0
  9 12  1  0  0  0  0
  9 13  1  0  0  0  0
M  END
>  <Score>
0.209082

>  <Energy>
-5.226628

>  <Confidence>
0.790918

>  <Binding_Affinity>
-3.000000

>  <IC50_nM>
6320605.5

$$$$
