ml_pose_26
  PandaDock generated structure

 13 13  0  0  0  0  0  0  0  0999 V2000
  -14.5166  -17.1957    6.6409 O   0  0  0  0  0  0  0  0  0  0  0  0
  -15.3810  -17.5640    7.7877 C   0  0  0  0  0  0  0  0  0  0  0  0
  -16.3330  -16.6289    8.1785 C   0  0  0  0  0  0  0  0  0  0  0  0
  -15.2302  -18.7638    8.4398 C   0  0  0  0  0  0  0  0  0  0  0  0
  -17.0842  -17.0579    9.2956 C   0  0  0  0  0  0  0  0  0  0  0  0
  -16.4734  -15.1725    7.4883 C   0  0  0  0  0  0  0  0  0  0  0  0
  -16.9037  -18.2923    9.8306 C   0  0  0  0  0  0  0  0  0  0  0  0
  -16.0953  -19.1354    9.4129 C   0  0  0  0  0  0  0  0  0  0  0  0
  -14.2009  -19.7445    7.7492 C   0  0  0  0  0  0  0  0  0  0  0  0
  -17.5457  -15.3313    6.5706 C   0  0  0  0  0  0  0  0  0  0  0  0
  -16.5319  -14.1251    8.5992 C   0  0  0  0  0  0  0  0  0  0  0  0
  -12.9482  -19.9524    8.7568 C   0  0  0  0  0  0  0  0  0  0  0  0
  -14.8558  -21.1362    7.5897 C   0  0  0  0  0  0  0  0  0  0  0  0
  1  2  1  0  0  0  0
  2  3  1  0  0  0  0
  2  4  1  0  0  0  0
  3  5  1  0  0  0  0
  3  6  1  0  0  0  0
  4  8  1  0  0  0  0
  4  9  1  0  0  0  0
  5  7  1  0  0  0  0
  6 10  1  0  0  0  0
  6 11  1  0  0  0  0
  7  8  1  0  0  0  0
  9 12  1  0  0  0  0
  9 13  1  0  0  0  0
M  END
>  <Score>
0.110173

>  <Energy>
-5.481280

>  <Confidence>
0.889827

>  <Binding_Affinity>
-12.296538

>  <IC50_nM>
1.0

$$$$
ml_pose_24
  PandaDock generated structure

 13 13  0  0  0  0  0  0  0  0999 V2000
  -16.9430  -19.1870    8.0187 O   0  0  0  0  0  0  0  0  0  0  0  0
  -16.0872  -18.1565    8.0913 C   0  0  0  0  0  0  0  0  0  0  0  0
  -15.6492  -17.4137    6.9348 C   0  0  0  0  0  0  0  0  0  0  0  0
  -15.6306  -17.8190    9.3269 C   0  0  0  0  0  0  0  0  0  0  0  0
  -14.7668  -16.4382    7.0733 C   0  0  0  0  0  0  0  0  0  0  0  0
  -16.1804  -17.8215    5.6965 C   0  0  0  0  0  0  0  0  0  0  0  0
  -14.2689  -16.0593    8.3392 C   0  0  0  0  0  0  0  0  0  0  0  0
  -14.6726  -16.7122    9.4732 C   0  0  0  0  0  0  0  0  0  0  0  0
  -15.9394  -18.5795   10.6959 C   0  0  0  0  0  0  0  0  0  0  0  0
  -17.4216  -16.9394    5.2157 C   0  0  0  0  0  0  0  0  0  0  0  0
  -15.1445  -17.8632    4.5815 C   0  0  0  0  0  0  0  0  0  0  0  0
  -14.9607  -19.5387   11.1935 C   0  0  0  0  0  0  0  0  0  0  0  0
  -16.4349  -17.5717   11.6996 C   0  0  0  0  0  0  0  0  0  0  0  0
  1  2  1  0  0  0  0
  2  3  1  0  0  0  0
  2  4  1  0  0  0  0
  3  5  1  0  0  0  0
  3  6  1  0  0  0  0
  4  8  1  0  0  0  0
  4  9  1  0  0  0  0
  5  7  1  0  0  0  0
  6 10  1  0  0  0  0
  6 11  1  0  0  0  0
  7  8  1  0  0  0  0
  9 12  1  0  0  0  0
  9 13  1  0  0  0  0
M  END
>  <Score>
0.124210

>  <Energy>
-5.449312

>  <Confidence>
0.875790

>  <Binding_Affinity>
-12.015803

>  <IC50_nM>
1.6

$$$$
ml_pose_1
  PandaDock generated structure

 13 13  0  0  0  0  0  0  0  0999 V2000
  -14.3332  -16.3758    7.6719 O   0  0  0  0  0  0  0  0  0  0  0  0
  -15.2361  -17.3482    7.9841 C   0  0  0  0  0  0  0  0  0  0  0  0
  -15.1282  -18.2189    9.0926 C   0  0  0  0  0  0  0  0  0  0  0  0
  -16.4571  -17.3822    7.3451 C   0  0  0  0  0  0  0  0  0  0  0  0
  -16.1107  -19.1137    9.4140 C   0  0  0  0  0  0  0  0  0  0  0  0
  -13.7079  -18.0906    9.9732 C   0  0  0  0  0  0  0  0  0  0  0  0
  -17.2101  -19.1726    8.7240 C   0  0  0  0  0  0  0  0  0  0  0  0
  -17.4566  -18.1982    7.6148 C   0  0  0  0  0  0  0  0  0  0  0  0
  -16.6233  -16.3652    6.1570 C   0  0  0  0  0  0  0  0  0  0  0  0
  -13.9564  -17.4032   11.1816 C   0  0  0  0  0  0  0  0  0  0  0  0
  -13.3244  -19.5637   10.2229 C   0  0  0  0  0  0  0  0  0  0  0  0
  -16.5992  -17.1419    4.7331 C   0  0  0  0  0  0  0  0  0  0  0  0
  -17.9568  -15.7257    6.2260 C   0  0  0  0  0  0  0  0  0  0  0  0
  1  2  1  0  0  0  0
  2  3  1  0  0  0  0
  2  4  1  0  0  0  0
  3  5  1  0  0  0  0
  3  6  1  0  0  0  0
  4  8  1  0  0  0  0
  4  9  1  0  0  0  0
  5  7  1  0  0  0  0
  6 10  1  0  0  0  0
  6 11  1  0  0  0  0
  7  8  1  0  0  0  0
  9 12  1  0  0  0  0
  9 13  1  0  0  0  0
M  END
>  <Score>
0.138492

>  <Energy>
-7.437117

>  <Confidence>
0.861508

>  <Binding_Affinity>
-11.730158

>  <IC50_nM>
2.5

$$$$
ml_pose_5
  PandaDock generated structure

 13 13  0  0  0  0  0  0  0  0999 V2000
  -17.2406  -16.4329    8.5344 O   0  0  0  0  0  0  0  0  0  0  0  0
  -16.0981  -17.3987    8.3793 C   0  0  0  0  0  0  0  0  0  0  0  0
  -15.0574  -17.2347    9.2102 C   0  0  0  0  0  0  0  0  0  0  0  0
  -16.1025  -18.1447    7.1606 C   0  0  0  0  0  0  0  0  0  0  0  0
  -14.0342  -18.2828    8.9594 C   0  0  0  0  0  0  0  0  0  0  0  0
  -15.1400  -16.4723   10.3151 C   0  0  0  0  0  0  0  0  0  0  0  0
  -14.0456  -19.0611    7.7500 C   0  0  0  0  0  0  0  0  0  0  0  0
  -15.0662  -18.9847    6.8704 C   0  0  0  0  0  0  0  0  0  0  0  0
  -17.2798  -18.1475    6.1414 C   0  0  0  0  0  0  0  0  0  0  0  0
  -15.6196  -17.2934   11.5929 C   0  0  0  0  0  0  0  0  0  0  0  0
  -13.7537  -15.8057   10.6514 C   0  0  0  0  0  0  0  0  0  0  0  0
  -16.8797  -17.2792    4.8898 C   0  0  0  0  0  0  0  0  0  0  0  0
  -17.7826  -19.5621    5.8849 C   0  0  0  0  0  0  0  0  0  0  0  0
  1  2  1  0  0  0  0
  2  3  1  0  0  0  0
  2  4  1  0  0  0  0
  3  5  1  0  0  0  0
  3  6  1  0  0  0  0
  4  8  1  0  0  0  0
  4  9  1  0  0  0  0
  5  7  1  0  0  0  0
  6 10  1  0  0  0  0
  6 11  1  0  0  0  0
  7  8  1  0  0  0  0
  9 12  1  0  0  0  0
  9 13  1  0  0  0  0
M  END
>  <Score>
0.157575

>  <Energy>
-5.276224

>  <Confidence>
0.842425

>  <Binding_Affinity>
-11.348498

>  <IC50_nM>
4.8

$$$$
ml_pose_13
  PandaDock generated structure

 13 13  0  0  0  0  0  0  0  0999 V2000
  -16.5082  -19.5272    8.5703 O   0  0  0  0  0  0  0  0  0  0  0  0
  -15.8509  -18.1887    8.3816 C   0  0  0  0  0  0  0  0  0  0  0  0
  -14.5376  -18.0529    7.9807 C   0  0  0  0  0  0  0  0  0  0  0  0
  -16.7347  -17.1185    8.4601 C   0  0  0  0  0  0  0  0  0  0  0  0
  -14.0725  -16.8156    7.7440 C   0  0  0  0  0  0  0  0  0  0  0  0
  -13.7321  -19.3521    7.8269 C   0  0  0  0  0  0  0  0  0  0  0  0
  -14.7793  -15.7162    7.8897 C   0  0  0  0  0  0  0  0  0  0  0  0
  -16.2045  -15.9628    8.1193 C   0  0  0  0  0  0  0  0  0  0  0  0
  -18.2098  -17.2015    8.6245 C   0  0  0  0  0  0  0  0  0  0  0  0
  -13.5488  -19.8206    6.4537 C   0  0  0  0  0  0  0  0  0  0  0  0
  -12.3887  -19.1331    8.5070 C   0  0  0  0  0  0  0  0  0  0  0  0
  -18.4426  -16.7920   10.1163 C   0  0  0  0  0  0  0  0  0  0  0  0
  -19.0902  -16.4186    7.6660 C   0  0  0  0  0  0  0  0  0  0  0  0
  1  2  1  0  0  0  0
  2  3  1  0  0  0  0
  2  4  1  0  0  0  0
  3  5  1  0  0  0  0
  3  6  1  0  0  0  0
  4  8  1  0  0  0  0
  4  9  1  0  0  0  0
  5  7  1  0  0  0  0
  6 10  1  0  0  0  0
  6 11  1  0  0  0  0
  7  8  1  0  0  0  0
  9 12  1  0  0  0  0
  9 13  1  0  0  0  0
M  END
>  <Score>
0.207512

>  <Energy>
-7.746578

>  <Confidence>
0.792488

>  <Binding_Affinity>
-10.349766

>  <IC50_nM>
25.9

$$$$
ml_pose_21
  PandaDock generated structure

 13 13  0  0  0  0  0  0  0  0999 V2000
  -14.2369  -17.4930    9.6127 O   0  0  0  0  0  0  0  0  0  0  0  0
  -15.2811  -17.6912    8.6025 C   0  0  0  0  0  0  0  0  0  0  0  0
  -16.2851  -18.6127    8.7515 C   0  0  0  0  0  0  0  0  0  0  0  0
  -15.2495  -16.8249    7.4877 C   0  0  0  0  0  0  0  0  0  0  0  0
  -17.1970  -18.7279    7.8074 C   0  0  0  0  0  0  0  0  0  0  0  0
  -16.3742  -19.6585    9.8039 C   0  0  0  0  0  0  0  0  0  0  0  0
  -17.1447  -17.9767    6.6095 C   0  0  0  0  0  0  0  0  0  0  0  0
  -16.3018  -16.9486    6.5053 C   0  0  0  0  0  0  0  0  0  0  0  0
  -14.2753  -15.7489    7.2685 C   0  0  0  0  0  0  0  0  0  0  0  0
  -17.3332  -19.0107   11.0093 C   0  0  0  0  0  0  0  0  0  0  0  0
  -16.5224  -20.9559    9.5400 C   0  0  0  0  0  0  0  0  0  0  0  0
  -13.1199  -16.0602    6.2797 C   0  0  0  0  0  0  0  0  0  0  0  0
  -14.7790  -14.3909    7.0620 C   0  0  0  0  0  0  0  0  0  0  0  0
  1  2  1  0  0  0  0
  2  3  1  0  0  0  0
  2  4  1  0  0  0  0
  3  5  1  0  0  0  0
  3  6  1  0  0  0  0
  4  8  1  0  0  0  0
  4  9  1  0  0  0  0
  5  7  1  0  0  0  0
  6 10  1  0  0  0  0
  6 11  1  0  0  0  0
  7  8  1  0  0  0  0
  9 12  1  0  0  0  0
  9 13  1  0  0  0  0
M  END
>  <Score>
0.214853

>  <Energy>
-5.422009

>  <Confidence>
0.785147

>  <Binding_Affinity>
-10.202937

>  <IC50_nM>
33.1

$$$$
ml_pose_29
  PandaDock generated structure

 13 13  0  0  0  0  0  0  0  0999 V2000
  -16.5281  -19.1183    7.1359 O   0  0  0  0  0  0  0  0  0  0  0  0
  -15.9105  -18.2277    7.9206 C   0  0  0  0  0  0  0  0  0  0  0  0
  -16.2476  -16.7903    7.5498 C   0  0  0  0  0  0  0  0  0  0  0  0
  -15.0230  -18.4032    8.8679 C   0  0  0  0  0  0  0  0  0  0  0  0
  -15.7112  -15.7879    8.2834 C   0  0  0  0  0  0  0  0  0  0  0  0
  -17.2905  -16.4757    6.4584 C   0  0  0  0  0  0  0  0  0  0  0  0
  -14.7240  -16.0905    9.3347 C   0  0  0  0  0  0  0  0  0  0  0  0
  -14.4347  -17.3116    9.5712 C   0  0  0  0  0  0  0  0  0  0  0  0
  -14.7110  -19.9503    9.1584 C   0  0  0  0  0  0  0  0  0  0  0  0
  -18.6712  -16.2389    7.0034 C   0  0  0  0  0  0  0  0  0  0  0  0
  -16.7418  -15.2840    5.5960 C   0  0  0  0  0  0  0  0  0  0  0  0
  -13.2328  -20.2646    8.7401 C   0  0  0  0  0  0  0  0  0  0  0  0
  -14.8734  -20.1571   10.7202 C   0  0  0  0  0  0  0  0  0  0  0  0
  1  2  1  0  0  0  0
  2  3  1  0  0  0  0
  2  4  1  0  0  0  0
  3  5  1  0  0  0  0
  3  6  1  0  0  0  0
  4  8  1  0  0  0  0
  4  9  1  0  0  0  0
  5  7  1  0  0  0  0
  6 10  1  0  0  0  0
  6 11  1  0  0  0  0
  7  8  1  0  0  0  0
  9 12  1  0  0  0  0
  9 13  1  0  0  0  0
M  END
>  <Score>
0.244687

>  <Energy>
-6.282355

>  <Confidence>
0.755313

>  <Binding_Affinity>
-9.606254

>  <IC50_nM>
90.7

$$$$
ml_pose_15
  PandaDock generated structure

 13 13  0  0  0  0  0  0  0  0999 V2000
  -14.3187  -17.2704    6.8336 O   0  0  0  0  0  0  0  0  0  0  0  0
  -15.2193  -17.6360    7.7627 C   0  0  0  0  0  0  0  0  0  0  0  0
  -15.3692  -16.8045    8.9763 C   0  0  0  0  0  0  0  0  0  0  0  0
  -16.2186  -18.6896    7.5923 C   0  0  0  0  0  0  0  0  0  0  0  0
  -16.3028  -17.2080    9.9290 C   0  0  0  0  0  0  0  0  0  0  0  0
  -14.4363  -15.6979    9.2707 C   0  0  0  0  0  0  0  0  0  0  0  0
  -17.2328  -18.2453    9.6146 C   0  0  0  0  0  0  0  0  0  0  0  0
  -17.1382  -18.9129    8.5542 C   0  0  0  0  0  0  0  0  0  0  0  0
  -16.0251  -19.3362    6.1557 C   0  0  0  0  0  0  0  0  0  0  0  0
  -15.0353  -14.4096    8.9124 C   0  0  0  0  0  0  0  0  0  0  0  0
  -13.8575  -15.7289   10.6687 C   0  0  0  0  0  0  0  0  0  0  0  0
  -15.4973  -20.7592    6.4975 C   0  0  0  0  0  0  0  0  0  0  0  0
  -17.4490  -19.4013    5.5722 C   0  0  0  0  0  0  0  0  0  0  0  0
  1  2  1  0  0  0  0
  2  3  1  0  0  0  0
  2  4  1  0  0  0  0
  3  5  1  0  0  0  0
  3  6  1  0  0  0  0
  4  8  1  0  0  0  0
  4  9  1  0  0  0  0
  5  7  1  0  0  0  0
  6 10  1  0  0  0  0
  6 11  1  0  0  0  0
  7  8  1  0  0  0  0
  9 12  1  0  0  0  0
  9 13  1  0  0  0  0
M  END
>  <Score>
0.283861

>  <Energy>
-8.749952

>  <Confidence>
0.716139

>  <Binding_Affinity>
-8.822776

>  <IC50_nM>
340.6

$$$$
ml_pose_25
  PandaDock generated structure

 13 13  0  0  0  0  0  0  0  0999 V2000
  -15.4747  -19.3344    9.1074 O   0  0  0  0  0  0  0  0  0  0  0  0
  -15.6440  -18.2081    8.5227 C   0  0  0  0  0  0  0  0  0  0  0  0
  -15.1363  -16.9837    8.8912 C   0  0  0  0  0  0  0  0  0  0  0  0
  -16.3236  -18.1326    7.2500 C   0  0  0  0  0  0  0  0  0  0  0  0
  -15.4563  -15.8569    8.4134 C   0  0  0  0  0  0  0  0  0  0  0  0
  -14.3019  -17.0271   10.2533 C   0  0  0  0  0  0  0  0  0  0  0  0
  -16.1715  -15.7817    7.1766 C   0  0  0  0  0  0  0  0  0  0  0  0
  -16.5297  -17.0272    6.6538 C   0  0  0  0  0  0  0  0  0  0  0  0
  -16.8342  -19.4434    6.7058 C   0  0  0  0  0  0  0  0  0  0  0  0
  -12.7631  -16.9679    9.9785 C   0  0  0  0  0  0  0  0  0  0  0  0
  -14.7357  -15.9462   11.3332 C   0  0  0  0  0  0  0  0  0  0  0  0
  -18.3639  -19.6905    6.8298 C   0  0  0  0  0  0  0  0  0  0  0  0
  -16.3651  -19.7002    5.2245 C   0  0  0  0  0  0  0  0  0  0  0  0
  1  2  1  0  0  0  0
  2  3  1  0  0  0  0
  2  4  1  0  0  0  0
  3  5  1  0  0  0  0
  3  6  1  0  0  0  0
  4  8  1  0  0  0  0
  4  9  1  0  0  0  0
  5  7  1  0  0  0  0
  6 10  1  0  0  0  0
  6 11  1  0  0  0  0
  7  8  1  0  0  0  0
  9 12  1  0  0  0  0
  9 13  1  0  0  0  0
M  END
>  <Score>
0.327875

>  <Energy>
-6.406489

>  <Confidence>
0.672125

>  <Binding_Affinity>
-7.942510

>  <IC50_nM>
1504.9

$$$$
ml_pose_4
  PandaDock generated structure

 13 13  0  0  0  0  0  0  0  0999 V2000
  -14.1079  -16.7687    7.4444 O   0  0  0  0  0  0  0  0  0  0  0  0
  -15.2020  -17.4793    7.9006 C   0  0  0  0  0  0  0  0  0  0  0  0
  -15.4787  -17.3848    9.2330 C   0  0  0  0  0  0  0  0  0  0  0  0
  -16.0434  -18.0529    7.0948 C   0  0  0  0  0  0  0  0  0  0  0  0
  -16.5717  -18.1122    9.8860 C   0  0  0  0  0  0  0  0  0  0  0  0
  -14.5085  -16.7204   10.2208 C   0  0  0  0  0  0  0  0  0  0  0  0
  -17.3681  -18.6591    9.0355 C   0  0  0  0  0  0  0  0  0  0  0  0
  -17.2425  -18.7494    7.6636 C   0  0  0  0  0  0  0  0  0  0  0  0
  -15.9435  -18.1480    5.6560 C   0  0  0  0  0  0  0  0  0  0  0  0
  -14.8362  -15.3964   10.6769 C   0  0  0  0  0  0  0  0  0  0  0  0
  -14.1424  -17.4850   11.4786 C   0  0  0  0  0  0  0  0  0  0  0  0
  -15.4887  -19.4748    5.1474 C   0  0  0  0  0  0  0  0  0  0  0  0
  -17.1665  -17.6690    4.9025 C   0  0  0  0  0  0  0  0  0  0  0  0
  1  2  1  0  0  0  0
  2  3  1  0  0  0  0
  2  4  1  0  0  0  0
  3  5  1  0  0  0  0
  3  6  1  0  0  0  0
  4  8  1  0  0  0  0
  4  9  1  0  0  0  0
  5  7  1  0  0  0  0
  6 10  1  0  0  0  0
  6 11  1  0  0  0  0
  7  8  1  0  0  0  0
  9 12  1  0  0  0  0
  9 13  1  0  0  0  0
M  END
>  <Score>
0.338226

>  <Energy>
-7.780302

>  <Confidence>
0.661774

>  <Binding_Affinity>
-7.735475

>  <IC50_nM>
2134.4

$$$$
