ml_pose_26
  PandaDock generated structure

 13 13  0  0  0  0  0  0  0  0999 V2000
  -14.5166  -17.1957    6.6409 O   0  0  0  0  0  0  0  0  0  0  0  0
  -15.3810  -17.5640    7.7877 C   0  0  0  0  0  0  0  0  0  0  0  0
  -16.3330  -16.6289    8.1785 C   0  0  0  0  0  0  0  0  0  0  0  0
  -15.2302  -18.7638    8.4398 C   0  0  0  0  0  0  0  0  0  0  0  0
  -17.0842  -17.0579    9.2956 C   0  0  0  0  0  0  0  0  0  0  0  0
  -16.4734  -15.1725    7.4883 C   0  0  0  0  0  0  0  0  0  0  0  0
  -16.9037  -18.2923    9.8306 C   0  0  0  0  0  0  0  0  0  0  0  0
  -16.0953  -19.1354    9.4129 C   0  0  0  0  0  0  0  0  0  0  0  0
  -14.2009  -19.7445    7.7492 C   0  0  0  0  0  0  0  0  0  0  0  0
  -17.5457  -15.3313    6.5706 C   0  0  0  0  0  0  0  0  0  0  0  0
  -16.5319  -14.1251    8.5992 C   0  0  0  0  0  0  0  0  0  0  0  0
  -12.9482  -19.9524    8.7568 C   0  0  0  0  0  0  0  0  0  0  0  0
  -14.8558  -21.1362    7.5897 C   0  0  0  0  0  0  0  0  0  0  0  0
  1  2  1  0  0  0  0
  2  3  1  0  0  0  0
  2  4  1  0  0  0  0
  3  5  1  0  0  0  0
  3  6  1  0  0  0  0
  4  8  1  0  0  0  0
  4  9  1  0  0  0  0
  5  7  1  0  0  0  0
  6 10  1  0  0  0  0
  6 11  1  0  0  0  0
  7  8  1  0  0  0  0
  9 12  1  0  0  0  0
  9 13  1  0  0  0  0
M  END
>  <Score>
0.110173

>  <Energy>
-5.481280

>  <Confidence>
0.889827

>  <Binding_Affinity>
-12.296538

>  <IC50_nM>
1.0

$$$$
