ml_pose_29
  PandaDock generated structure

 13 13  0  0  0  0  0  0  0  0999 V2000
  -16.5281  -19.1183    7.1359 O   0  0  0  0  0  0  0  0  0  0  0  0
  -15.9105  -18.2277    7.9206 C   0  0  0  0  0  0  0  0  0  0  0  0
  -16.2476  -16.7903    7.5498 C   0  0  0  0  0  0  0  0  0  0  0  0
  -15.0230  -18.4032    8.8679 C   0  0  0  0  0  0  0  0  0  0  0  0
  -15.7112  -15.7879    8.2834 C   0  0  0  0  0  0  0  0  0  0  0  0
  -17.2905  -16.4757    6.4584 C   0  0  0  0  0  0  0  0  0  0  0  0
  -14.7240  -16.0905    9.3347 C   0  0  0  0  0  0  0  0  0  0  0  0
  -14.4347  -17.3116    9.5712 C   0  0  0  0  0  0  0  0  0  0  0  0
  -14.7110  -19.9503    9.1584 C   0  0  0  0  0  0  0  0  0  0  0  0
  -18.6712  -16.2389    7.0034 C   0  0  0  0  0  0  0  0  0  0  0  0
  -16.7418  -15.2840    5.5960 C   0  0  0  0  0  0  0  0  0  0  0  0
  -13.2328  -20.2646    8.7401 C   0  0  0  0  0  0  0  0  0  0  0  0
  -14.8734  -20.1571   10.7202 C   0  0  0  0  0  0  0  0  0  0  0  0
  1  2  1  0  0  0  0
  2  3  1  0  0  0  0
  2  4  1  0  0  0  0
  3  5  1  0  0  0  0
  3  6  1  0  0  0  0
  4  8  1  0  0  0  0
  4  9  1  0  0  0  0
  5  7  1  0  0  0  0
  6 10  1  0  0  0  0
  6 11  1  0  0  0  0
  7  8  1  0  0  0  0
  9 12  1  0  0  0  0
  9 13  1  0  0  0  0
M  END
>  <Score>
0.244687

>  <Energy>
-6.282355

>  <Confidence>
0.755313

>  <Binding_Affinity>
-9.606254

>  <IC50_nM>
90.7

$$$$
