ml_pose_13
  PandaDock generated structure

 13 13  0  0  0  0  0  0  0  0999 V2000
  -16.5082  -19.5272    8.5703 O   0  0  0  0  0  0  0  0  0  0  0  0
  -15.8509  -18.1887    8.3816 C   0  0  0  0  0  0  0  0  0  0  0  0
  -14.5376  -18.0529    7.9807 C   0  0  0  0  0  0  0  0  0  0  0  0
  -16.7347  -17.1185    8.4601 C   0  0  0  0  0  0  0  0  0  0  0  0
  -14.0725  -16.8156    7.7440 C   0  0  0  0  0  0  0  0  0  0  0  0
  -13.7321  -19.3521    7.8269 C   0  0  0  0  0  0  0  0  0  0  0  0
  -14.7793  -15.7162    7.8897 C   0  0  0  0  0  0  0  0  0  0  0  0
  -16.2045  -15.9628    8.1193 C   0  0  0  0  0  0  0  0  0  0  0  0
  -18.2098  -17.2015    8.6245 C   0  0  0  0  0  0  0  0  0  0  0  0
  -13.5488  -19.8206    6.4537 C   0  0  0  0  0  0  0  0  0  0  0  0
  -12.3887  -19.1331    8.5070 C   0  0  0  0  0  0  0  0  0  0  0  0
  -18.4426  -16.7920   10.1163 C   0  0  0  0  0  0  0  0  0  0  0  0
  -19.0902  -16.4186    7.6660 C   0  0  0  0  0  0  0  0  0  0  0  0
  1  2  1  0  0  0  0
  2  3  1  0  0  0  0
  2  4  1  0  0  0  0
  3  5  1  0  0  0  0
  3  6  1  0  0  0  0
  4  8  1  0  0  0  0
  4  9  1  0  0  0  0
  5  7  1  0  0  0  0
  6 10  1  0  0  0  0
  6 11  1  0  0  0  0
  7  8  1  0  0  0  0
  9 12  1  0  0  0  0
  9 13  1  0  0  0  0
M  END
>  <Score>
0.207512

>  <Energy>
-7.746578

>  <Confidence>
0.792488

>  <Binding_Affinity>
-10.349766

>  <IC50_nM>
25.9

$$$$
