ml_pose_1
  PandaDock generated structure

 13 13  0  0  0  0  0  0  0  0999 V2000
  -14.3332  -16.3758    7.6719 O   0  0  0  0  0  0  0  0  0  0  0  0
  -15.2361  -17.3482    7.9841 C   0  0  0  0  0  0  0  0  0  0  0  0
  -15.1282  -18.2189    9.0926 C   0  0  0  0  0  0  0  0  0  0  0  0
  -16.4571  -17.3822    7.3451 C   0  0  0  0  0  0  0  0  0  0  0  0
  -16.1107  -19.1137    9.4140 C   0  0  0  0  0  0  0  0  0  0  0  0
  -13.7079  -18.0906    9.9732 C   0  0  0  0  0  0  0  0  0  0  0  0
  -17.2101  -19.1726    8.7240 C   0  0  0  0  0  0  0  0  0  0  0  0
  -17.4566  -18.1982    7.6148 C   0  0  0  0  0  0  0  0  0  0  0  0
  -16.6233  -16.3652    6.1570 C   0  0  0  0  0  0  0  0  0  0  0  0
  -13.9564  -17.4032   11.1816 C   0  0  0  0  0  0  0  0  0  0  0  0
  -13.3244  -19.5637   10.2229 C   0  0  0  0  0  0  0  0  0  0  0  0
  -16.5992  -17.1419    4.7331 C   0  0  0  0  0  0  0  0  0  0  0  0
  -17.9568  -15.7257    6.2260 C   0  0  0  0  0  0  0  0  0  0  0  0
  1  2  1  0  0  0  0
  2  3  1  0  0  0  0
  2  4  1  0  0  0  0
  3  5  1  0  0  0  0
  3  6  1  0  0  0  0
  4  8  1  0  0  0  0
  4  9  1  0  0  0  0
  5  7  1  0  0  0  0
  6 10  1  0  0  0  0
  6 11  1  0  0  0  0
  7  8  1  0  0  0  0
  9 12  1  0  0  0  0
  9 13  1  0  0  0  0
M  END
>  <Score>
0.138492

>  <Energy>
-7.437117

>  <Confidence>
0.861508

>  <Binding_Affinity>
-11.730158

>  <IC50_nM>
2.5

$$$$
