ml_pose_4
  PandaDock generated structure

 13 13  0  0  0  0  0  0  0  0999 V2000
  -16.5966  -16.2018    9.1605 O   0  0  0  0  0  0  0  0  0  0  0  0
  -15.9770  -17.2930    8.5110 C   0  0  0  0  0  0  0  0  0  0  0  0
  -15.9607  -17.2923    7.0177 C   0  0  0  0  0  0  0  0  0  0  0  0
  -15.3470  -18.2489    9.1862 C   0  0  0  0  0  0  0  0  0  0  0  0
  -15.2341  -18.3519    6.4134 C   0  0  0  0  0  0  0  0  0  0  0  0
  -16.5802  -16.2543    6.3423 C   0  0  0  0  0  0  0  0  0  0  0  0
  -14.6472  -19.3445    7.0844 C   0  0  0  0  0  0  0  0  0  0  0  0
  -14.8933  -19.3223    8.5140 C   0  0  0  0  0  0  0  0  0  0  0  0
  -15.5693  -18.2831   10.7278 C   0  0  0  0  0  0  0  0  0  0  0  0
  -15.3938  -15.1430    5.8642 C   0  0  0  0  0  0  0  0  0  0  0  0
  -17.1590  -16.6480    5.1019 C   0  0  0  0  0  0  0  0  0  0  0  0
  -16.5252  -19.2599   11.1343 C   0  0  0  0  0  0  0  0  0  0  0  0
  -14.2166  -18.4569   11.2823 C   0  0  0  0  0  0  0  0  0  0  0  0
  1  2  1  0  0  0  0
  2  3  1  0  0  0  0
  2  4  1  0  0  0  0
  3  5  1  0  0  0  0
  3  6  1  0  0  0  0
  4  8  1  0  0  0  0
  4  9  1  0  0  0  0
  5  7  1  0  0  0  0
  6 10  1  0  0  0  0
  6 11  1  0  0  0  0
  7  8  1  0  0  0  0
  9 12  1  0  0  0  0
  9 13  1  0  0  0  0
M  END
>  <Score>
-2.731568

>  <Energy>
-7.142340

>  <Confidence>
0.839776

>  <Binding_Affinity>
-6.000000

>  <IC50_nM>
39950.1

$$$$
ml_pose_12
  PandaDock generated structure

 13 13  0  0  0  0  0  0  0  0999 V2000
  -16.8473  -16.1099    8.3576 O   0  0  0  0  0  0  0  0  0  0  0  0
  -15.9644  -17.1715    8.1316 C   0  0  0  0  0  0  0  0  0  0  0  0
  -14.6809  -17.0932    8.2760 C   0  0  0  0  0  0  0  0  0  0  0  0
  -16.6198  -18.4670    8.0805 C   0  0  0  0  0  0  0  0  0  0  0  0
  -13.8922  -18.2722    8.1332 C   0  0  0  0  0  0  0  0  0  0  0  0
  -14.0869  -15.6380    8.4626 C   0  0  0  0  0  0  0  0  0  0  0  0
  -14.3539  -19.4522    8.0239 C   0  0  0  0  0  0  0  0  0  0  0  0
  -15.8673  -19.5082    7.9237 C   0  0  0  0  0  0  0  0  0  0  0  0
  -18.0975  -18.6557    7.9356 C   0  0  0  0  0  0  0  0  0  0  0  0
  -13.5465  -15.4722   10.0145 C   0  0  0  0  0  0  0  0  0  0  0  0
  -12.7909  -15.6818    7.5947 C   0  0  0  0  0  0  0  0  0  0  0  0
  -18.7096  -18.8618    6.5473 C   0  0  0  0  0  0  0  0  0  0  0  0
  -18.6428  -19.7162    8.8590 C   0  0  0  0  0  0  0  0  0  0  0  0
  1  2  1  0  0  0  0
  2  3  1  0  0  0  0
  2  4  1  0  0  0  0
  3  5  1  0  0  0  0
  3  6  1  0  0  0  0
  4  8  1  0  0  0  0
  4  9  1  0  0  0  0
  5  7  1  0  0  0  0
  6 10  1  0  0  0  0
  6 11  1  0  0  0  0
  7  8  1  0  0  0  0
  9 12  1  0  0  0  0
  9 13  1  0  0  0  0
M  END
>  <Score>
-2.684548

>  <Energy>
-8.639671

>  <Confidence>
0.699764

>  <Binding_Affinity>
-6.000000

>  <IC50_nM>
39950.1

$$$$
ml_pose_25
  PandaDock generated structure

 13 13  0  0  0  0  0  0  0  0999 V2000
  -16.6957  -16.5338    9.4301 O   0  0  0  0  0  0  0  0  0  0  0  0
  -16.0641  -17.3211    8.5913 C   0  0  0  0  0  0  0  0  0  0  0  0
  -16.1470  -17.1973    7.2676 C   0  0  0  0  0  0  0  0  0  0  0  0
  -15.0609  -18.2619    8.9497 C   0  0  0  0  0  0  0  0  0  0  0  0
  -15.4878  -18.1070    6.3433 C   0  0  0  0  0  0  0  0  0  0  0  0
  -17.2146  -16.1720    6.6295 C   0  0  0  0  0  0  0  0  0  0  0  0
  -14.7156  -19.0150    6.9083 C   0  0  0  0  0  0  0  0  0  0  0  0
  -14.3719  -19.1736    8.0971 C   0  0  0  0  0  0  0  0  0  0  0  0
  -14.8783  -18.4194   10.5260 C   0  0  0  0  0  0  0  0  0  0  0  0
  -16.3894  -14.9566    6.2274 C   0  0  0  0  0  0  0  0  0  0  0  0
  -18.0403  -16.6955    5.5320 C   0  0  0  0  0  0  0  0  0  0  0  0
  -15.6418  -19.7108   11.0387 C   0  0  0  0  0  0  0  0  0  0  0  0
  -13.3928  -18.5360   10.7992 C   0  0  0  0  0  0  0  0  0  0  0  0
  1  2  1  0  0  0  0
  2  3  1  0  0  0  0
  2  4  1  0  0  0  0
  3  5  1  0  0  0  0
  3  6  1  0  0  0  0
  4  8  1  0  0  0  0
  4  9  1  0  0  0  0
  5  7  1  0  0  0  0
  6 10  1  0  0  0  0
  6 11  1  0  0  0  0
  7  8  1  0  0  0  0
  9 12  1  0  0  0  0
  9 13  1  0  0  0  0
M  END
>  <Score>
-2.181875

>  <Energy>
-5.690280

>  <Confidence>
0.654245

>  <Binding_Affinity>
-6.000000

>  <IC50_nM>
39950.1

$$$$
ml_pose_17
  PandaDock generated structure

 13 13  0  0  0  0  0  0  0  0999 V2000
  -17.3768  -17.0658    7.4251 O   0  0  0  0  0  0  0  0  0  0  0  0
  -16.1019  -17.5312    8.0227 C   0  0  0  0  0  0  0  0  0  0  0  0
  -15.7164  -18.7422    7.5660 C   0  0  0  0  0  0  0  0  0  0  0  0
  -15.5342  -16.7304    8.9101 C   0  0  0  0  0  0  0  0  0  0  0  0
  -14.4599  -19.1317    8.1034 C   0  0  0  0  0  0  0  0  0  0  0  0
  -16.4782  -19.4811    6.6197 C   0  0  0  0  0  0  0  0  0  0  0  0
  -13.8693  -18.4519    8.9504 C   0  0  0  0  0  0  0  0  0  0  0  0
  -14.3254  -17.2426    9.3507 C   0  0  0  0  0  0  0  0  0  0  0  0
  -16.0930  -15.4698    9.2941 C   0  0  0  0  0  0  0  0  0  0  0  0
  -15.9018  -19.3666    5.1438 C   0  0  0  0  0  0  0  0  0  0  0  0
  -16.4536  -21.0523    6.8397 C   0  0  0  0  0  0  0  0  0  0  0  0
  -16.6678  -15.4766   10.8383 C   0  0  0  0  0  0  0  0  0  0  0  0
  -15.1215  -14.3578    9.2761 C   0  0  0  0  0  0  0  0  0  0  0  0
  1  2  1  0  0  0  0
  2  3  1  0  0  0  0
  2  4  1  0  0  0  0
  3  5  1  0  0  0  0
  3  6  1  0  0  0  0
  4  8  1  0  0  0  0
  4  9  1  0  0  0  0
  5  7  1  0  0  0  0
  6 10  1  0  0  0  0
  6 11  1  0  0  0  0
  7  8  1  0  0  0  0
  9 12  1  0  0  0  0
  9 13  1  0  0  0  0
M  END
>  <Score>
-2.165768

>  <Energy>
-6.522489

>  <Confidence>
0.584587

>  <Binding_Affinity>
-6.000000

>  <IC50_nM>
39950.1

$$$$
ml_pose_7
  PandaDock generated structure

 13 13  0  0  0  0  0  0  0  0999 V2000
  -15.3552  -19.1649    6.8985 O   0  0  0  0  0  0  0  0  0  0  0  0
  -15.5801  -18.0895    7.8030 C   0  0  0  0  0  0  0  0  0  0  0  0
  -16.2717  -16.9648    7.4861 C   0  0  0  0  0  0  0  0  0  0  0  0
  -15.0997  -18.3555    8.9819 C   0  0  0  0  0  0  0  0  0  0  0  0
  -16.5201  -15.9386    8.3995 C   0  0  0  0  0  0  0  0  0  0  0  0
  -16.8713  -16.8220    5.9761 C   0  0  0  0  0  0  0  0  0  0  0  0
  -16.0351  -16.1283    9.6366 C   0  0  0  0  0  0  0  0  0  0  0  0
  -15.2749  -17.2402    9.9465 C   0  0  0  0  0  0  0  0  0  0  0  0
  -14.3830  -19.4949    9.4583 C   0  0  0  0  0  0  0  0  0  0  0  0
  -18.3158  -17.1554    5.8816 C   0  0  0  0  0  0  0  0  0  0  0  0
  -16.5632  -15.4347    5.5070 C   0  0  0  0  0  0  0  0  0  0  0  0
  -12.8951  -19.2398    9.5980 C   0  0  0  0  0  0  0  0  0  0  0  0
  -14.9347  -20.0714   10.7669 C   0  0  0  0  0  0  0  0  0  0  0  0
  1  2  1  0  0  0  0
  2  3  1  0  0  0  0
  2  4  1  0  0  0  0
  3  5  1  0  0  0  0
  3  6  1  0  0  0  0
  4  8  1  0  0  0  0
  4  9  1  0  0  0  0
  5  7  1  0  0  0  0
  6 10  1  0  0  0  0
  6 11  1  0  0  0  0
  7  8  1  0  0  0  0
  9 12  1  0  0  0  0
  9 13  1  0  0  0  0
M  END
>  <Score>
-2.140939

>  <Energy>
-6.284825

>  <Confidence>
0.603499

>  <Binding_Affinity>
-6.000000

>  <IC50_nM>
39950.1

$$$$
ml_pose_11
  PandaDock generated structure

 13 13  0  0  0  0  0  0  0  0999 V2000
  -16.3105  -18.4567    6.4303 O   0  0  0  0  0  0  0  0  0  0  0  0
  -15.8844  -17.8938    7.7156 C   0  0  0  0  0  0  0  0  0  0  0  0
  -16.7042  -18.1794    8.8439 C   0  0  0  0  0  0  0  0  0  0  0  0
  -14.6886  -17.0714    7.6658 C   0  0  0  0  0  0  0  0  0  0  0  0
  -16.0694  -17.6678   10.1210 C   0  0  0  0  0  0  0  0  0  0  0  0
  -17.8988  -18.9962    8.7543 C   0  0  0  0  0  0  0  0  0  0  0  0
  -15.0183  -16.8785    9.9299 C   0  0  0  0  0  0  0  0  0  0  0  0
  -14.2436  -16.6290    8.8705 C   0  0  0  0  0  0  0  0  0  0  0  0
  -13.9811  -16.8985    6.3446 C   0  0  0  0  0  0  0  0  0  0  0  0
  -17.5988  -20.4638    9.2678 C   0  0  0  0  0  0  0  0  0  0  0  0
  -18.9195  -18.3179    9.7400 C   0  0  0  0  0  0  0  0  0  0  0  0
  -14.2472  -15.3835    6.0131 C   0  0  0  0  0  0  0  0  0  0  0  0
  -12.5355  -17.2636    6.6433 C   0  0  0  0  0  0  0  0  0  0  0  0
  1  2  1  0  0  0  0
  2  3  1  0  0  0  0
  2  4  1  0  0  0  0
  3  5  1  0  0  0  0
  3  6  1  0  0  0  0
  4  8  1  0  0  0  0
  4  9  1  0  0  0  0
  5  7  1  0  0  0  0
  6 10  1  0  0  0  0
  6 11  1  0  0  0  0
  7  8  1  0  0  0  0
  9 12  1  0  0  0  0
  9 13  1  0  0  0  0
M  END
>  <Score>
-1.813321

>  <Energy>
-5.790349

>  <Confidence>
0.806987

>  <Binding_Affinity>
-6.000000

>  <IC50_nM>
39950.1

$$$$
ml_pose_22
  PandaDock generated structure

 13 13  0  0  0  0  0  0  0  0999 V2000
  -14.4633  -19.1395    7.3688 O   0  0  0  0  0  0  0  0  0  0  0  0
  -15.3066  -18.1063    7.9342 C   0  0  0  0  0  0  0  0  0  0  0  0
  -15.3351  -17.8347    9.2424 C   0  0  0  0  0  0  0  0  0  0  0  0
  -16.1904  -17.3857    7.1869 C   0  0  0  0  0  0  0  0  0  0  0  0
  -16.1640  -16.8731    9.9052 C   0  0  0  0  0  0  0  0  0  0  0  0
  -14.5515  -18.6832   10.2729 C   0  0  0  0  0  0  0  0  0  0  0  0
  -17.1047  -16.2945    9.0606 C   0  0  0  0  0  0  0  0  0  0  0  0
  -17.0562  -16.4713    7.7151 C   0  0  0  0  0  0  0  0  0  0  0  0
  -16.1081  -17.5273    5.6301 C   0  0  0  0  0  0  0  0  0  0  0  0
  -13.1772  -17.9220   10.7108 C   0  0  0  0  0  0  0  0  0  0  0  0
  -15.2679  -19.1662   11.4117 C   0  0  0  0  0  0  0  0  0  0  0  0
  -17.4256  -18.3888    5.0533 C   0  0  0  0  0  0  0  0  0  0  0  0
  -15.9494  -16.3074    4.8480 C   0  0  0  0  0  0  0  0  0  0  0  0
  1  2  1  0  0  0  0
  2  3  1  0  0  0  0
  2  4  1  0  0  0  0
  3  5  1  0  0  0  0
  3  6  1  0  0  0  0
  4  8  1  0  0  0  0
  4  9  1  0  0  0  0
  5  7  1  0  0  0  0
  6 10  1  0  0  0  0
  6 11  1  0  0  0  0
  7  8  1  0  0  0  0
  9 12  1  0  0  0  0
  9 13  1  0  0  0  0
M  END
>  <Score>
-1.783079

>  <Energy>
-5.558825

>  <Confidence>
0.648863

>  <Binding_Affinity>
-6.000000

>  <IC50_nM>
39950.1

$$$$
ml_pose_13
  PandaDock generated structure

 13 13  0  0  0  0  0  0  0  0999 V2000
  -17.4090  -17.2678    9.1319 O   0  0  0  0  0  0  0  0  0  0  0  0
  -16.2181  -17.6802    8.4618 C   0  0  0  0  0  0  0  0  0  0  0  0
  -15.8439  -17.0087    7.1922 C   0  0  0  0  0  0  0  0  0  0  0  0
  -15.2974  -18.4492    8.9746 C   0  0  0  0  0  0  0  0  0  0  0  0
  -14.7093  -17.2906    6.5790 C   0  0  0  0  0  0  0  0  0  0  0  0
  -16.9304  -15.9575    6.6234 C   0  0  0  0  0  0  0  0  0  0  0  0
  -13.9461  -18.1042    7.2547 C   0  0  0  0  0  0  0  0  0  0  0  0
  -14.1666  -18.7157    8.2542 C   0  0  0  0  0  0  0  0  0  0  0  0
  -15.5763  -19.2000   10.3904 C   0  0  0  0  0  0  0  0  0  0  0  0
  -16.5524  -14.6157    6.8338 C   0  0  0  0  0  0  0  0  0  0  0  0
  -17.1061  -16.3597    5.0388 C   0  0  0  0  0  0  0  0  0  0  0  0
  -15.8902  -20.5347   10.2489 C   0  0  0  0  0  0  0  0  0  0  0  0
  -14.4542  -18.9158   11.3563 C   0  0  0  0  0  0  0  0  0  0  0  0
  1  2  1  0  0  0  0
  2  3  1  0  0  0  0
  2  4  1  0  0  0  0
  3  5  1  0  0  0  0
  3  6  1  0  0  0  0
  4  8  1  0  0  0  0
  4  9  1  0  0  0  0
  5  7  1  0  0  0  0
  6 10  1  0  0  0  0
  6 11  1  0  0  0  0
  7  8  1  0  0  0  0
  9 12  1  0  0  0  0
  9 13  1  0  0  0  0
M  END
>  <Score>
-1.717004

>  <Energy>
-5.217804

>  <Confidence>
0.873026

>  <Binding_Affinity>
-6.000000

>  <IC50_nM>
39950.1

$$$$
ml_pose_24
  PandaDock generated structure

 13 13  0  0  0  0  0  0  0  0999 V2000
  -15.5652  -15.7590    7.8249 O   0  0  0  0  0  0  0  0  0  0  0  0
  -15.7001  -17.1954    8.0518 C   0  0  0  0  0  0  0  0  0  0  0  0
  -16.8068  -17.6513    8.6708 C   0  0  0  0  0  0  0  0  0  0  0  0
  -14.5491  -17.9923    7.6961 C   0  0  0  0  0  0  0  0  0  0  0  0
  -16.8763  -18.9196    8.9788 C   0  0  0  0  0  0  0  0  0  0  0  0
  -17.8339  -16.6980    9.2958 C   0  0  0  0  0  0  0  0  0  0  0  0
  -15.8801  -19.7901    8.5587 C   0  0  0  0  0  0  0  0  0  0  0  0
  -14.7018  -19.3086    7.8442 C   0  0  0  0  0  0  0  0  0  0  0  0
  -13.4600  -17.5267    6.9360 C   0  0  0  0  0  0  0  0  0  0  0  0
  -19.0622  -16.6306    8.3776 C   0  0  0  0  0  0  0  0  0  0  0  0
  -18.2245  -16.9034   10.6934 C   0  0  0  0  0  0  0  0  0  0  0  0
  -12.1844  -17.5725    7.7259 C   0  0  0  0  0  0  0  0  0  0  0  0
  -13.2556  -18.1526    5.6861 C   0  0  0  0  0  0  0  0  0  0  0  0
  1  2  1  0  0  0  0
  2  3  1  0  0  0  0
  2  4  1  0  0  0  0
  3  5  1  0  0  0  0
  3  6  1  0  0  0  0
  4  8  1  0  0  0  0
  4  9  1  0  0  0  0
  5  7  1  0  0  0  0
  6 10  1  0  0  0  0
  6 11  1  0  0  0  0
  7  8  1  0  0  0  0
  9 12  1  0  0  0  0
  9 13  1  0  0  0  0
M  END
>  <Score>
-1.702820

>  <Energy>
-7.071426

>  <Confidence>
0.546734

>  <Binding_Affinity>
-6.000000

>  <IC50_nM>
39950.1

$$$$
ml_pose_23
  PandaDock generated structure

 13 13  0  0  0  0  0  0  0  0999 V2000
  -16.4491  -15.8496    7.8221 O   0  0  0  0  0  0  0  0  0  0  0  0
  -15.9701  -17.0698    8.0515 C   0  0  0  0  0  0  0  0  0  0  0  0
  -16.0881  -17.7472    9.2864 C   0  0  0  0  0  0  0  0  0  0  0  0
  -15.2512  -17.8923    7.1313 C   0  0  0  0  0  0  0  0  0  0  0  0
  -15.4828  -19.0937    9.5562 C   0  0  0  0  0  0  0  0  0  0  0  0
  -17.0156  -17.0905   10.3827 C   0  0  0  0  0  0  0  0  0  0  0  0
  -14.8466  -19.6244    8.6734 C   0  0  0  0  0  0  0  0  0  0  0  0
  -14.5834  -19.0550    7.3365 C   0  0  0  0  0  0  0  0  0  0  0  0
  -14.8976  -17.1109    5.7779 C   0  0  0  0  0  0  0  0  0  0  0  0
  -18.3355  -17.5447   10.4428 C   0  0  0  0  0  0  0  0  0  0  0  0
  -16.1845  -17.1888   11.6723 C   0  0  0  0  0  0  0  0  0  0  0  0
  -13.6255  -16.6272    5.6300 C   0  0  0  0  0  0  0  0  0  0  0  0
  -15.3700  -18.2058    4.5769 C   0  0  0  0  0  0  0  0  0  0  0  0
  1  2  1  0  0  0  0
  2  3  1  0  0  0  0
  2  4  1  0  0  0  0
  3  5  1  0  0  0  0
  3  6  1  0  0  0  0
  4  8  1  0  0  0  0
  4  9  1  0  0  0  0
  5  7  1  0  0  0  0
  6 10  1  0  0  0  0
  6 11  1  0  0  0  0
  7  8  1  0  0  0  0
  9 12  1  0  0  0  0
  9 13  1  0  0  0  0
M  END
>  <Score>
-1.686425

>  <Energy>
-5.305818

>  <Confidence>
0.898730

>  <Binding_Affinity>
-6.000000

>  <IC50_nM>
39950.1

$$$$
