ml_pose_13
  PandaDock generated structure

 13 13  0  0  0  0  0  0  0  0999 V2000
  -17.4090  -17.2678    9.1319 O   0  0  0  0  0  0  0  0  0  0  0  0
  -16.2181  -17.6802    8.4618 C   0  0  0  0  0  0  0  0  0  0  0  0
  -15.8439  -17.0087    7.1922 C   0  0  0  0  0  0  0  0  0  0  0  0
  -15.2974  -18.4492    8.9746 C   0  0  0  0  0  0  0  0  0  0  0  0
  -14.7093  -17.2906    6.5790 C   0  0  0  0  0  0  0  0  0  0  0  0
  -16.9304  -15.9575    6.6234 C   0  0  0  0  0  0  0  0  0  0  0  0
  -13.9461  -18.1042    7.2547 C   0  0  0  0  0  0  0  0  0  0  0  0
  -14.1666  -18.7157    8.2542 C   0  0  0  0  0  0  0  0  0  0  0  0
  -15.5763  -19.2000   10.3904 C   0  0  0  0  0  0  0  0  0  0  0  0
  -16.5524  -14.6157    6.8338 C   0  0  0  0  0  0  0  0  0  0  0  0
  -17.1061  -16.3597    5.0388 C   0  0  0  0  0  0  0  0  0  0  0  0
  -15.8902  -20.5347   10.2489 C   0  0  0  0  0  0  0  0  0  0  0  0
  -14.4542  -18.9158   11.3563 C   0  0  0  0  0  0  0  0  0  0  0  0
  1  2  1  0  0  0  0
  2  3  1  0  0  0  0
  2  4  1  0  0  0  0
  3  5  1  0  0  0  0
  3  6  1  0  0  0  0
  4  8  1  0  0  0  0
  4  9  1  0  0  0  0
  5  7  1  0  0  0  0
  6 10  1  0  0  0  0
  6 11  1  0  0  0  0
  7  8  1  0  0  0  0
  9 12  1  0  0  0  0
  9 13  1  0  0  0  0
M  END
>  <Score>
-1.717004

>  <Energy>
-5.217804

>  <Confidence>
0.873026

>  <Binding_Affinity>
-6.000000

>  <IC50_nM>
39950.1

$$$$
