ml_pose_12
  PandaDock generated structure

 13 13  0  0  0  0  0  0  0  0999 V2000
  -16.8473  -16.1099    8.3576 O   0  0  0  0  0  0  0  0  0  0  0  0
  -15.9644  -17.1715    8.1316 C   0  0  0  0  0  0  0  0  0  0  0  0
  -14.6809  -17.0932    8.2760 C   0  0  0  0  0  0  0  0  0  0  0  0
  -16.6198  -18.4670    8.0805 C   0  0  0  0  0  0  0  0  0  0  0  0
  -13.8922  -18.2722    8.1332 C   0  0  0  0  0  0  0  0  0  0  0  0
  -14.0869  -15.6380    8.4626 C   0  0  0  0  0  0  0  0  0  0  0  0
  -14.3539  -19.4522    8.0239 C   0  0  0  0  0  0  0  0  0  0  0  0
  -15.8673  -19.5082    7.9237 C   0  0  0  0  0  0  0  0  0  0  0  0
  -18.0975  -18.6557    7.9356 C   0  0  0  0  0  0  0  0  0  0  0  0
  -13.5465  -15.4722   10.0145 C   0  0  0  0  0  0  0  0  0  0  0  0
  -12.7909  -15.6818    7.5947 C   0  0  0  0  0  0  0  0  0  0  0  0
  -18.7096  -18.8618    6.5473 C   0  0  0  0  0  0  0  0  0  0  0  0
  -18.6428  -19.7162    8.8590 C   0  0  0  0  0  0  0  0  0  0  0  0
  1  2  1  0  0  0  0
  2  3  1  0  0  0  0
  2  4  1  0  0  0  0
  3  5  1  0  0  0  0
  3  6  1  0  0  0  0
  4  8  1  0  0  0  0
  4  9  1  0  0  0  0
  5  7  1  0  0  0  0
  6 10  1  0  0  0  0
  6 11  1  0  0  0  0
  7  8  1  0  0  0  0
  9 12  1  0  0  0  0
  9 13  1  0  0  0  0
M  END
>  <Score>
-2.684548

>  <Energy>
-8.639671

>  <Confidence>
0.699764

>  <Binding_Affinity>
-6.000000

>  <IC50_nM>
39950.1

$$$$
