ml_pose_7
  PandaDock generated structure

 13 13  0  0  0  0  0  0  0  0999 V2000
  -15.3552  -19.1649    6.8985 O   0  0  0  0  0  0  0  0  0  0  0  0
  -15.5801  -18.0895    7.8030 C   0  0  0  0  0  0  0  0  0  0  0  0
  -16.2717  -16.9648    7.4861 C   0  0  0  0  0  0  0  0  0  0  0  0
  -15.0997  -18.3555    8.9819 C   0  0  0  0  0  0  0  0  0  0  0  0
  -16.5201  -15.9386    8.3995 C   0  0  0  0  0  0  0  0  0  0  0  0
  -16.8713  -16.8220    5.9761 C   0  0  0  0  0  0  0  0  0  0  0  0
  -16.0351  -16.1283    9.6366 C   0  0  0  0  0  0  0  0  0  0  0  0
  -15.2749  -17.2402    9.9465 C   0  0  0  0  0  0  0  0  0  0  0  0
  -14.3830  -19.4949    9.4583 C   0  0  0  0  0  0  0  0  0  0  0  0
  -18.3158  -17.1554    5.8816 C   0  0  0  0  0  0  0  0  0  0  0  0
  -16.5632  -15.4347    5.5070 C   0  0  0  0  0  0  0  0  0  0  0  0
  -12.8951  -19.2398    9.5980 C   0  0  0  0  0  0  0  0  0  0  0  0
  -14.9347  -20.0714   10.7669 C   0  0  0  0  0  0  0  0  0  0  0  0
  1  2  1  0  0  0  0
  2  3  1  0  0  0  0
  2  4  1  0  0  0  0
  3  5  1  0  0  0  0
  3  6  1  0  0  0  0
  4  8  1  0  0  0  0
  4  9  1  0  0  0  0
  5  7  1  0  0  0  0
  6 10  1  0  0  0  0
  6 11  1  0  0  0  0
  7  8  1  0  0  0  0
  9 12  1  0  0  0  0
  9 13  1  0  0  0  0
M  END
>  <Score>
-2.140939

>  <Energy>
-6.284825

>  <Confidence>
0.603499

>  <Binding_Affinity>
-6.000000

>  <IC50_nM>
39950.1

$$$$
