ml_pose_17
  PandaDock generated structure

 13 13  0  0  0  0  0  0  0  0999 V2000
  -17.3768  -17.0658    7.4251 O   0  0  0  0  0  0  0  0  0  0  0  0
  -16.1019  -17.5312    8.0227 C   0  0  0  0  0  0  0  0  0  0  0  0
  -15.7164  -18.7422    7.5660 C   0  0  0  0  0  0  0  0  0  0  0  0
  -15.5342  -16.7304    8.9101 C   0  0  0  0  0  0  0  0  0  0  0  0
  -14.4599  -19.1317    8.1034 C   0  0  0  0  0  0  0  0  0  0  0  0
  -16.4782  -19.4811    6.6197 C   0  0  0  0  0  0  0  0  0  0  0  0
  -13.8693  -18.4519    8.9504 C   0  0  0  0  0  0  0  0  0  0  0  0
  -14.3254  -17.2426    9.3507 C   0  0  0  0  0  0  0  0  0  0  0  0
  -16.0930  -15.4698    9.2941 C   0  0  0  0  0  0  0  0  0  0  0  0
  -15.9018  -19.3666    5.1438 C   0  0  0  0  0  0  0  0  0  0  0  0
  -16.4536  -21.0523    6.8397 C   0  0  0  0  0  0  0  0  0  0  0  0
  -16.6678  -15.4766   10.8383 C   0  0  0  0  0  0  0  0  0  0  0  0
  -15.1215  -14.3578    9.2761 C   0  0  0  0  0  0  0  0  0  0  0  0
  1  2  1  0  0  0  0
  2  3  1  0  0  0  0
  2  4  1  0  0  0  0
  3  5  1  0  0  0  0
  3  6  1  0  0  0  0
  4  8  1  0  0  0  0
  4  9  1  0  0  0  0
  5  7  1  0  0  0  0
  6 10  1  0  0  0  0
  6 11  1  0  0  0  0
  7  8  1  0  0  0  0
  9 12  1  0  0  0  0
  9 13  1  0  0  0  0
M  END
>  <Score>
-2.165768

>  <Energy>
-6.522489

>  <Confidence>
0.584587

>  <Binding_Affinity>
-6.000000

>  <IC50_nM>
39950.1

$$$$
