ml_pose_25
  PandaDock generated structure

 13 13  0  0  0  0  0  0  0  0999 V2000
  -16.6957  -16.5338    9.4301 O   0  0  0  0  0  0  0  0  0  0  0  0
  -16.0641  -17.3211    8.5913 C   0  0  0  0  0  0  0  0  0  0  0  0
  -16.1470  -17.1973    7.2676 C   0  0  0  0  0  0  0  0  0  0  0  0
  -15.0609  -18.2619    8.9497 C   0  0  0  0  0  0  0  0  0  0  0  0
  -15.4878  -18.1070    6.3433 C   0  0  0  0  0  0  0  0  0  0  0  0
  -17.2146  -16.1720    6.6295 C   0  0  0  0  0  0  0  0  0  0  0  0
  -14.7156  -19.0150    6.9083 C   0  0  0  0  0  0  0  0  0  0  0  0
  -14.3719  -19.1736    8.0971 C   0  0  0  0  0  0  0  0  0  0  0  0
  -14.8783  -18.4194   10.5260 C   0  0  0  0  0  0  0  0  0  0  0  0
  -16.3894  -14.9566    6.2274 C   0  0  0  0  0  0  0  0  0  0  0  0
  -18.0403  -16.6955    5.5320 C   0  0  0  0  0  0  0  0  0  0  0  0
  -15.6418  -19.7108   11.0387 C   0  0  0  0  0  0  0  0  0  0  0  0
  -13.3928  -18.5360   10.7992 C   0  0  0  0  0  0  0  0  0  0  0  0
  1  2  1  0  0  0  0
  2  3  1  0  0  0  0
  2  4  1  0  0  0  0
  3  5  1  0  0  0  0
  3  6  1  0  0  0  0
  4  8  1  0  0  0  0
  4  9  1  0  0  0  0
  5  7  1  0  0  0  0
  6 10  1  0  0  0  0
  6 11  1  0  0  0  0
  7  8  1  0  0  0  0
  9 12  1  0  0  0  0
  9 13  1  0  0  0  0
M  END
>  <Score>
-2.181875

>  <Energy>
-5.690280

>  <Confidence>
0.654245

>  <Binding_Affinity>
-6.000000

>  <IC50_nM>
39950.1

$$$$
