ml_pose_24
  PandaDock generated structure

 13 13  0  0  0  0  0  0  0  0999 V2000
  -15.5652  -15.7590    7.8249 O   0  0  0  0  0  0  0  0  0  0  0  0
  -15.7001  -17.1954    8.0518 C   0  0  0  0  0  0  0  0  0  0  0  0
  -16.8068  -17.6513    8.6708 C   0  0  0  0  0  0  0  0  0  0  0  0
  -14.5491  -17.9923    7.6961 C   0  0  0  0  0  0  0  0  0  0  0  0
  -16.8763  -18.9196    8.9788 C   0  0  0  0  0  0  0  0  0  0  0  0
  -17.8339  -16.6980    9.2958 C   0  0  0  0  0  0  0  0  0  0  0  0
  -15.8801  -19.7901    8.5587 C   0  0  0  0  0  0  0  0  0  0  0  0
  -14.7018  -19.3086    7.8442 C   0  0  0  0  0  0  0  0  0  0  0  0
  -13.4600  -17.5267    6.9360 C   0  0  0  0  0  0  0  0  0  0  0  0
  -19.0622  -16.6306    8.3776 C   0  0  0  0  0  0  0  0  0  0  0  0
  -18.2245  -16.9034   10.6934 C   0  0  0  0  0  0  0  0  0  0  0  0
  -12.1844  -17.5725    7.7259 C   0  0  0  0  0  0  0  0  0  0  0  0
  -13.2556  -18.1526    5.6861 C   0  0  0  0  0  0  0  0  0  0  0  0
  1  2  1  0  0  0  0
  2  3  1  0  0  0  0
  2  4  1  0  0  0  0
  3  5  1  0  0  0  0
  3  6  1  0  0  0  0
  4  8  1  0  0  0  0
  4  9  1  0  0  0  0
  5  7  1  0  0  0  0
  6 10  1  0  0  0  0
  6 11  1  0  0  0  0
  7  8  1  0  0  0  0
  9 12  1  0  0  0  0
  9 13  1  0  0  0  0
M  END
>  <Score>
-1.702820

>  <Energy>
-7.071426

>  <Confidence>
0.546734

>  <Binding_Affinity>
-6.000000

>  <IC50_nM>
39950.1

$$$$
