ml_pose_17
  PandaDock generated structure

 13 13  0  0  0  0  0  0  0  0999 V2000
  -17.0880  -16.7263    7.1763 O   0  0  0  0  0  0  0  0  0  0  0  0
  -16.0631  -17.3515    7.8735 C   0  0  0  0  0  0  0  0  0  0  0  0
  -15.8696  -17.0076    9.1494 C   0  0  0  0  0  0  0  0  0  0  0  0
  -15.3779  -18.4679    7.2669 C   0  0  0  0  0  0  0  0  0  0  0  0
  -14.8630  -17.7670    9.9714 C   0  0  0  0  0  0  0  0  0  0  0  0
  -16.6259  -15.9420    9.7521 C   0  0  0  0  0  0  0  0  0  0  0  0
  -14.1889  -18.6973    9.2763 C   0  0  0  0  0  0  0  0  0  0  0  0
  -14.4529  -19.1674    8.0296 C   0  0  0  0  0  0  0  0  0  0  0  0
  -15.6842  -18.8843    5.9766 C   0  0  0  0  0  0  0  0  0  0  0  0
  -17.7109  -16.3150   10.5635 C   0  0  0  0  0  0  0  0  0  0  0  0
  -15.7049  -15.0424   10.5321 C   0  0  0  0  0  0  0  0  0  0  0  0
  -14.5907  -18.4133    4.9531 C   0  0  0  0  0  0  0  0  0  0  0  0
  -15.8800  -20.3178    5.8194 C   0  0  0  0  0  0  0  0  0  0  0  0
  1  2  1  0  0  0  0
  2  3  1  0  0  0  0
  2  4  1  0  0  0  0
  3  5  1  0  0  0  0
  3  6  1  0  0  0  0
  4  8  1  0  0  0  0
  4  9  1  0  0  0  0
  5  7  1  0  0  0  0
  6 10  1  0  0  0  0
  6 11  1  0  0  0  0
  7  8  1  0  0  0  0
  9 12  1  0  0  0  0
  9 13  1  0  0  0  0
M  END
>  <Score>
0.128632

>  <Energy>
-5.219175

>  <Confidence>
0.871368

>  <Binding_Affinity>
-11.927369

>  <IC50_nM>
1.8

$$$$
ml_pose_9
  PandaDock generated structure

 13 13  0  0  0  0  0  0  0  0999 V2000
  -13.9161  -18.4451    8.5793 O   0  0  0  0  0  0  0  0  0  0  0  0
  -15.2177  -17.8751    8.2799 C   0  0  0  0  0  0  0  0  0  0  0  0
  -16.2563  -18.6979    8.1652 C   0  0  0  0  0  0  0  0  0  0  0  0
  -15.3341  -16.6302    8.1330 C   0  0  0  0  0  0  0  0  0  0  0  0
  -17.5195  -18.2375    7.7623 C   0  0  0  0  0  0  0  0  0  0  0  0
  -16.0097  -20.2802    8.4392 C   0  0  0  0  0  0  0  0  0  0  0  0
  -17.6664  -16.8905    7.5494 C   0  0  0  0  0  0  0  0  0  0  0  0
  -16.5318  -16.1133    7.7473 C   0  0  0  0  0  0  0  0  0  0  0  0
  -14.1377  -15.5648    8.3316 C   0  0  0  0  0  0  0  0  0  0  0  0
  -16.5870  -20.6580    9.7940 C   0  0  0  0  0  0  0  0  0  0  0  0
  -16.8324  -21.1179    7.2955 C   0  0  0  0  0  0  0  0  0  0  0  0
  -13.5596  -15.1478    7.0110 C   0  0  0  0  0  0  0  0  0  0  0  0
  -14.5317  -14.4417    9.2523 C   0  0  0  0  0  0  0  0  0  0  0  0
  1  2  1  0  0  0  0
  2  3  1  0  0  0  0
  2  4  1  0  0  0  0
  3  5  1  0  0  0  0
  3  6  1  0  0  0  0
  4  8  1  0  0  0  0
  4  9  1  0  0  0  0
  5  7  1  0  0  0  0
  6 10  1  0  0  0  0
  6 11  1  0  0  0  0
  7  8  1  0  0  0  0
  9 12  1  0  0  0  0
  9 13  1  0  0  0  0
M  END
>  <Score>
0.142197

>  <Energy>
-7.271785

>  <Confidence>
0.857803

>  <Binding_Affinity>
-11.656066

>  <IC50_nM>
2.9

$$$$
ml_pose_14
  PandaDock generated structure

 13 13  0  0  0  0  0  0  0  0999 V2000
  -16.0081  -16.0584    7.1051 O   0  0  0  0  0  0  0  0  0  0  0  0
  -15.7447  -17.2032    7.8179 C   0  0  0  0  0  0  0  0  0  0  0  0
  -16.6103  -18.4408    7.7012 C   0  0  0  0  0  0  0  0  0  0  0  0
  -14.7253  -17.2371    8.8184 C   0  0  0  0  0  0  0  0  0  0  0  0
  -16.3294  -19.4616    8.4535 C   0  0  0  0  0  0  0  0  0  0  0  0
  -17.6956  -18.2640    6.5807 C   0  0  0  0  0  0  0  0  0  0  0  0
  -15.3821  -19.4410    9.5079 C   0  0  0  0  0  0  0  0  0  0  0  0
  -14.6248  -18.3937    9.6426 C   0  0  0  0  0  0  0  0  0  0  0  0
  -13.9398  -15.9748    8.9728 C   0  0  0  0  0  0  0  0  0  0  0  0
  -17.2606  -19.1428    5.4224 C   0  0  0  0  0  0  0  0  0  0  0  0
  -18.9609  -18.9377    7.1405 C   0  0  0  0  0  0  0  0  0  0  0  0
  -14.3226  -15.1888   10.2307 C   0  0  0  0  0  0  0  0  0  0  0  0
  -12.4956  -16.3561    8.9465 C   0  0  0  0  0  0  0  0  0  0  0  0
  1  2  1  0  0  0  0
  2  3  1  0  0  0  0
  2  4  1  0  0  0  0
  3  5  1  0  0  0  0
  3  6  1  0  0  0  0
  4  8  1  0  0  0  0
  4  9  1  0  0  0  0
  5  7  1  0  0  0  0
  6 10  1  0  0  0  0
  6 11  1  0  0  0  0
  7  8  1  0  0  0  0
  9 12  1  0  0  0  0
  9 13  1  0  0  0  0
M  END
>  <Score>
0.142971

>  <Energy>
-8.080826

>  <Confidence>
0.857029

>  <Binding_Affinity>
-11.640580

>  <IC50_nM>
2.9

$$$$
ml_pose_1
  PandaDock generated structure

 13 13  0  0  0  0  0  0  0  0999 V2000
  -16.0516  -17.0245    9.9784 O   0  0  0  0  0  0  0  0  0  0  0  0
  -15.6947  -17.4826    8.6810 C   0  0  0  0  0  0  0  0  0  0  0  0
  -15.5476  -18.8065    8.5561 C   0  0  0  0  0  0  0  0  0  0  0  0
  -15.8035  -16.6330    7.5932 C   0  0  0  0  0  0  0  0  0  0  0  0
  -15.2853  -19.3396    7.2633 C   0  0  0  0  0  0  0  0  0  0  0  0
  -15.6618  -19.7300    9.6185 C   0  0  0  0  0  0  0  0  0  0  0  0
  -15.2853  -18.4640    6.1215 C   0  0  0  0  0  0  0  0  0  0  0  0
  -15.5435  -17.1128    6.3281 C   0  0  0  0  0  0  0  0  0  0  0  0
  -16.0782  -15.1821    7.9156 C   0  0  0  0  0  0  0  0  0  0  0  0
  -16.8748  -20.5627    9.7987 C   0  0  0  0  0  0  0  0  0  0  0  0
  -14.4574  -20.8025    9.7021 C   0  0  0  0  0  0  0  0  0  0  0  0
  -14.7349  -14.2895    7.8184 C   0  0  0  0  0  0  0  0  0  0  0  0
  -17.0814  -14.6703    6.9652 C   0  0  0  0  0  0  0  0  0  0  0  0
  1  2  1  0  0  0  0
  2  3  1  0  0  0  0
  2  4  1  0  0  0  0
  3  5  1  0  0  0  0
  3  6  1  0  0  0  0
  4  8  1  0  0  0  0
  4  9  1  0  0  0  0
  5  7  1  0  0  0  0
  6 10  1  0  0  0  0
  6 11  1  0  0  0  0
  7  8  1  0  0  0  0
  9 12  1  0  0  0  0
  9 13  1  0  0  0  0
M  END
>  <Score>
0.211531

>  <Energy>
-7.399321

>  <Confidence>
0.788469

>  <Binding_Affinity>
-10.269383

>  <IC50_nM>
29.6

$$$$
ml_pose_20
  PandaDock generated structure

 13 13  0  0  0  0  0  0  0  0999 V2000
  -15.4670  -16.0481    9.1805 O   0  0  0  0  0  0  0  0  0  0  0  0
  -15.6338  -17.2323    8.5320 C   0  0  0  0  0  0  0  0  0  0  0  0
  -15.2957  -17.3053    7.0584 C   0  0  0  0  0  0  0  0  0  0  0  0
  -16.1132  -18.3059    9.0430 C   0  0  0  0  0  0  0  0  0  0  0  0
  -15.5100  -18.4237    6.4165 C   0  0  0  0  0  0  0  0  0  0  0  0
  -14.7659  -16.0793    6.5514 C   0  0  0  0  0  0  0  0  0  0  0  0
  -16.0481  -19.5984    7.1239 C   0  0  0  0  0  0  0  0  0  0  0  0
  -16.3567  -19.4572    8.4315 C   0  0  0  0  0  0  0  0  0  0  0  0
  -16.4475  -18.2090   10.6265 C   0  0  0  0  0  0  0  0  0  0  0  0
  -13.2514  -16.1989    6.3004 C   0  0  0  0  0  0  0  0  0  0  0  0
  -15.3753  -15.7907    5.0421 C   0  0  0  0  0  0  0  0  0  0  0  0
  -17.9811  -18.1075   10.7360 C   0  0  0  0  0  0  0  0  0  0  0  0
  -15.8542  -19.3437   11.2978 C   0  0  0  0  0  0  0  0  0  0  0  0
  1  2  1  0  0  0  0
  2  3  1  0  0  0  0
  2  4  1  0  0  0  0
  3  5  1  0  0  0  0
  3  6  1  0  0  0  0
  4  8  1  0  0  0  0
  4  9  1  0  0  0  0
  5  7  1  0  0  0  0
  6 10  1  0  0  0  0
  6 11  1  0  0  0  0
  7  8  1  0  0  0  0
  9 12  1  0  0  0  0
  9 13  1  0  0  0  0
M  END
>  <Score>
0.216481

>  <Energy>
-6.295689

>  <Confidence>
0.783519

>  <Binding_Affinity>
-10.170388

>  <IC50_nM>
35.0

$$$$
ml_pose_8
  PandaDock generated structure

 13 13  0  0  0  0  0  0  0  0999 V2000
  -13.9691  -17.2494    8.7321 O   0  0  0  0  0  0  0  0  0  0  0  0
  -15.1432  -17.5767    8.2843 C   0  0  0  0  0  0  0  0  0  0  0  0
  -16.2407  -16.8556    8.9626 C   0  0  0  0  0  0  0  0  0  0  0  0
  -15.3418  -18.5728    7.3833 C   0  0  0  0  0  0  0  0  0  0  0  0
  -17.4685  -17.1961    8.4487 C   0  0  0  0  0  0  0  0  0  0  0  0
  -16.0564  -15.9200    9.9690 C   0  0  0  0  0  0  0  0  0  0  0  0
  -17.7010  -18.3166    7.5565 C   0  0  0  0  0  0  0  0  0  0  0  0
  -16.5339  -18.8651    7.0719 C   0  0  0  0  0  0  0  0  0  0  0  0
  -14.1190  -19.2502    6.8476 C   0  0  0  0  0  0  0  0  0  0  0  0
  -16.1591  -14.4652    9.2856 C   0  0  0  0  0  0  0  0  0  0  0  0
  -17.1546  -16.0741   11.0573 C   0  0  0  0  0  0  0  0  0  0  0  0
  -13.9701  -20.5228    7.4466 C   0  0  0  0  0  0  0  0  0  0  0  0
  -14.2427  -19.2354    5.2945 C   0  0  0  0  0  0  0  0  0  0  0  0
  1  2  1  0  0  0  0
  2  3  1  0  0  0  0
  2  4  1  0  0  0  0
  3  5  1  0  0  0  0
  3  6  1  0  0  0  0
  4  8  1  0  0  0  0
  4  9  1  0  0  0  0
  5  7  1  0  0  0  0
  6 10  1  0  0  0  0
  6 11  1  0  0  0  0
  7  8  1  0  0  0  0
  9 12  1  0  0  0  0
  9 13  1  0  0  0  0
M  END
>  <Score>
0.242772

>  <Energy>
-5.097569

>  <Confidence>
0.757228

>  <Binding_Affinity>
-9.644552

>  <IC50_nM>
85.1

$$$$
ml_pose_25
  PandaDock generated structure

 13 13  0  0  0  0  0  0  0  0999 V2000
  -14.5728  -17.9714    9.8685 O   0  0  0  0  0  0  0  0  0  0  0  0
  -15.3059  -17.7894    8.6761 C   0  0  0  0  0  0  0  0  0  0  0  0
  -15.1832  -16.6623    7.7504 C   0  0  0  0  0  0  0  0  0  0  0  0
  -16.5189  -18.6729    8.4209 C   0  0  0  0  0  0  0  0  0  0  0  0
  -15.8468  -16.4877    6.7095 C   0  0  0  0  0  0  0  0  0  0  0  0
  -14.0731  -15.6199    8.1799 C   0  0  0  0  0  0  0  0  0  0  0  0
  -16.8699  -17.4835    6.3642 C   0  0  0  0  0  0  0  0  0  0  0  0
  -17.1606  -18.5138    7.2696 C   0  0  0  0  0  0  0  0  0  0  0  0
  -16.6506  -19.9018    9.3343 C   0  0  0  0  0  0  0  0  0  0  0  0
  -12.7066  -16.0426    7.3017 C   0  0  0  0  0  0  0  0  0  0  0  0
  -14.5278  -14.1910    7.8750 C   0  0  0  0  0  0  0  0  0  0  0  0
  -18.0077  -19.5834   10.0510 C   0  0  0  0  0  0  0  0  0  0  0  0
  -16.6762  -21.1803    8.5388 C   0  0  0  0  0  0  0  0  0  0  0  0
  1  2  1  0  0  0  0
  2  3  1  0  0  0  0
  2  4  1  0  0  0  0
  3  5  1  0  0  0  0
  3  6  1  0  0  0  0
  4  8  1  0  0  0  0
  4  9  1  0  0  0  0
  5  7  1  0  0  0  0
  6 10  1  0  0  0  0
  6 11  1  0  0  0  0
  7  8  1  0  0  0  0
  9 12  1  0  0  0  0
  9 13  1  0  0  0  0
M  END
>  <Score>
0.270133

>  <Energy>
-6.342206

>  <Confidence>
0.729867

>  <Binding_Affinity>
-9.097333

>  <IC50_nM>
214.3

$$$$
ml_pose_28
  PandaDock generated structure

 13 13  0  0  0  0  0  0  0  0999 V2000
  -15.9997  -18.8882    6.6404 O   0  0  0  0  0  0  0  0  0  0  0  0
  -15.7960  -18.0744    7.6891 C   0  0  0  0  0  0  0  0  0  0  0  0
  -14.7256  -18.3681    8.6523 C   0  0  0  0  0  0  0  0  0  0  0  0
  -16.6635  -17.0014    7.9199 C   0  0  0  0  0  0  0  0  0  0  0  0
  -14.6130  -17.5066    9.7272 C   0  0  0  0  0  0  0  0  0  0  0  0
  -13.8787  -19.5247    8.4401 C   0  0  0  0  0  0  0  0  0  0  0  0
  -15.4324  -16.3856    9.9030 C   0  0  0  0  0  0  0  0  0  0  0  0
  -16.4209  -16.2211    8.9861 C   0  0  0  0  0  0  0  0  0  0  0  0
  -17.7523  -16.5852    6.9225 C   0  0  0  0  0  0  0  0  0  0  0  0
  -12.5435  -19.0743    7.7837 C   0  0  0  0  0  0  0  0  0  0  0  0
  -13.6257  -20.2472    9.7080 C   0  0  0  0  0  0  0  0  0  0  0  0
  -19.0037  -17.0060    7.5119 C   0  0  0  0  0  0  0  0  0  0  0  0
  -17.6449  -15.2171    6.4559 C   0  0  0  0  0  0  0  0  0  0  0  0
  1  2  1  0  0  0  0
  2  3  1  0  0  0  0
  2  4  1  0  0  0  0
  3  5  1  0  0  0  0
  3  6  1  0  0  0  0
  4  8  1  0  0  0  0
  4  9  1  0  0  0  0
  5  7  1  0  0  0  0
  6 10  1  0  0  0  0
  6 11  1  0  0  0  0
  7  8  1  0  0  0  0
  9 12  1  0  0  0  0
  9 13  1  0  0  0  0
M  END
>  <Score>
0.279532

>  <Energy>
-5.996327

>  <Confidence>
0.720468

>  <Binding_Affinity>
-8.909356

>  <IC50_nM>
294.3

$$$$
ml_pose_7
  PandaDock generated structure

 13 13  0  0  0  0  0  0  0  0999 V2000
  -13.9859  -16.6223    8.5815 O   0  0  0  0  0  0  0  0  0  0  0  0
  -15.2233  -17.3887    8.3046 C   0  0  0  0  0  0  0  0  0  0  0  0
  -15.8682  -17.3026    7.0215 C   0  0  0  0  0  0  0  0  0  0  0  0
  -15.7791  -18.2008    9.2662 C   0  0  0  0  0  0  0  0  0  0  0  0
  -17.0232  -18.0371    6.7712 C   0  0  0  0  0  0  0  0  0  0  0  0
  -15.3136  -16.3667    5.9680 C   0  0  0  0  0  0  0  0  0  0  0  0
  -17.4919  -18.8885    7.8586 C   0  0  0  0  0  0  0  0  0  0  0  0
  -16.8319  -18.8877    8.9775 C   0  0  0  0  0  0  0  0  0  0  0  0
  -15.0444  -18.2497   10.5936 C   0  0  0  0  0  0  0  0  0  0  0  0
  -14.4698  -17.1759    4.9494 C   0  0  0  0  0  0  0  0  0  0  0  0
  -16.3754  -15.6045    5.2802 C   0  0  0  0  0  0  0  0  0  0  0  0
  -15.8243  -17.6261   11.7231 C   0  0  0  0  0  0  0  0  0  0  0  0
  -14.8689  -19.7494   11.0446 C   0  0  0  0  0  0  0  0  0  0  0  0
  1  2  1  0  0  0  0
  2  3  1  0  0  0  0
  2  4  1  0  0  0  0
  3  5  1  0  0  0  0
  3  6  1  0  0  0  0
  4  8  1  0  0  0  0
  4  9  1  0  0  0  0
  5  7  1  0  0  0  0
  6 10  1  0  0  0  0
  6 11  1  0  0  0  0
  7  8  1  0  0  0  0
  9 12  1  0  0  0  0
  9 13  1  0  0  0  0
M  END
>  <Score>
0.317497

>  <Energy>
-7.075446

>  <Confidence>
0.682503

>  <Binding_Affinity>
-8.150052

>  <IC50_nM>
1060.1

$$$$
ml_pose_11
  PandaDock generated structure

 13 13  0  0  0  0  0  0  0  0999 V2000
  -15.6503  -15.6705    8.1712 O   0  0  0  0  0  0  0  0  0  0  0  0
  -15.6282  -17.1197    8.0459 C   0  0  0  0  0  0  0  0  0  0  0  0
  -15.0226  -17.7687    7.2071 C   0  0  0  0  0  0  0  0  0  0  0  0
  -16.4573  -17.8371    9.1574 C   0  0  0  0  0  0  0  0  0  0  0  0
  -14.9838  -19.2309    7.2987 C   0  0  0  0  0  0  0  0  0  0  0  0
  -14.1439  -17.1895    6.1888 C   0  0  0  0  0  0  0  0  0  0  0  0
  -15.7350  -19.8731    8.2024 C   0  0  0  0  0  0  0  0  0  0  0  0
  -16.4638  -19.1348    9.1840 C   0  0  0  0  0  0  0  0  0  0  0  0
  -17.2353  -16.9818   10.1826 C   0  0  0  0  0  0  0  0  0  0  0  0
  -12.7779  -17.0777    6.3916 C   0  0  0  0  0  0  0  0  0  0  0  0
  -14.4226  -17.8030    4.8326 C   0  0  0  0  0  0  0  0  0  0  0  0
  -18.7013  -16.9437    9.9013 C   0  0  0  0  0  0  0  0  0  0  0  0
  -16.8780  -17.4695   11.5765 C   0  0  0  0  0  0  0  0  0  0  0  0
  1  2  1  0  0  0  0
  2  3  1  0  0  0  0
  2  4  1  0  0  0  0
  3  5  1  0  0  0  0
  3  6  1  0  0  0  0
  4  8  1  0  0  0  0
  4  9  1  0  0  0  0
  5  7  1  0  0  0  0
  6 10  1  0  0  0  0
  6 11  1  0  0  0  0
  7  8  1  0  0  0  0
  9 12  1  0  0  0  0
  9 13  1  0  0  0  0
M  END
>  <Score>
0.349203

>  <Energy>
-7.304834

>  <Confidence>
0.650797

>  <Binding_Affinity>
-7.515937

>  <IC50_nM>
3091.8

$$$$
