ml_pose_20
  PandaDock generated structure

 13 13  0  0  0  0  0  0  0  0999 V2000
  -15.4670  -16.0481    9.1805 O   0  0  0  0  0  0  0  0  0  0  0  0
  -15.6338  -17.2323    8.5320 C   0  0  0  0  0  0  0  0  0  0  0  0
  -15.2957  -17.3053    7.0584 C   0  0  0  0  0  0  0  0  0  0  0  0
  -16.1132  -18.3059    9.0430 C   0  0  0  0  0  0  0  0  0  0  0  0
  -15.5100  -18.4237    6.4165 C   0  0  0  0  0  0  0  0  0  0  0  0
  -14.7659  -16.0793    6.5514 C   0  0  0  0  0  0  0  0  0  0  0  0
  -16.0481  -19.5984    7.1239 C   0  0  0  0  0  0  0  0  0  0  0  0
  -16.3567  -19.4572    8.4315 C   0  0  0  0  0  0  0  0  0  0  0  0
  -16.4475  -18.2090   10.6265 C   0  0  0  0  0  0  0  0  0  0  0  0
  -13.2514  -16.1989    6.3004 C   0  0  0  0  0  0  0  0  0  0  0  0
  -15.3753  -15.7907    5.0421 C   0  0  0  0  0  0  0  0  0  0  0  0
  -17.9811  -18.1075   10.7360 C   0  0  0  0  0  0  0  0  0  0  0  0
  -15.8542  -19.3437   11.2978 C   0  0  0  0  0  0  0  0  0  0  0  0
  1  2  1  0  0  0  0
  2  3  1  0  0  0  0
  2  4  1  0  0  0  0
  3  5  1  0  0  0  0
  3  6  1  0  0  0  0
  4  8  1  0  0  0  0
  4  9  1  0  0  0  0
  5  7  1  0  0  0  0
  6 10  1  0  0  0  0
  6 11  1  0  0  0  0
  7  8  1  0  0  0  0
  9 12  1  0  0  0  0
  9 13  1  0  0  0  0
M  END
>  <Score>
0.216481

>  <Energy>
-6.295689

>  <Confidence>
0.783519

>  <Binding_Affinity>
-10.170388

>  <IC50_nM>
35.0

$$$$
