ml_pose_28
  PandaDock generated structure

 13 13  0  0  0  0  0  0  0  0999 V2000
  -15.9997  -18.8882    6.6404 O   0  0  0  0  0  0  0  0  0  0  0  0
  -15.7960  -18.0744    7.6891 C   0  0  0  0  0  0  0  0  0  0  0  0
  -14.7256  -18.3681    8.6523 C   0  0  0  0  0  0  0  0  0  0  0  0
  -16.6635  -17.0014    7.9199 C   0  0  0  0  0  0  0  0  0  0  0  0
  -14.6130  -17.5066    9.7272 C   0  0  0  0  0  0  0  0  0  0  0  0
  -13.8787  -19.5247    8.4401 C   0  0  0  0  0  0  0  0  0  0  0  0
  -15.4324  -16.3856    9.9030 C   0  0  0  0  0  0  0  0  0  0  0  0
  -16.4209  -16.2211    8.9861 C   0  0  0  0  0  0  0  0  0  0  0  0
  -17.7523  -16.5852    6.9225 C   0  0  0  0  0  0  0  0  0  0  0  0
  -12.5435  -19.0743    7.7837 C   0  0  0  0  0  0  0  0  0  0  0  0
  -13.6257  -20.2472    9.7080 C   0  0  0  0  0  0  0  0  0  0  0  0
  -19.0037  -17.0060    7.5119 C   0  0  0  0  0  0  0  0  0  0  0  0
  -17.6449  -15.2171    6.4559 C   0  0  0  0  0  0  0  0  0  0  0  0
  1  2  1  0  0  0  0
  2  3  1  0  0  0  0
  2  4  1  0  0  0  0
  3  5  1  0  0  0  0
  3  6  1  0  0  0  0
  4  8  1  0  0  0  0
  4  9  1  0  0  0  0
  5  7  1  0  0  0  0
  6 10  1  0  0  0  0
  6 11  1  0  0  0  0
  7  8  1  0  0  0  0
  9 12  1  0  0  0  0
  9 13  1  0  0  0  0
M  END
>  <Score>
0.279532

>  <Energy>
-5.996327

>  <Confidence>
0.720468

>  <Binding_Affinity>
-8.909356

>  <IC50_nM>
294.3

$$$$
