ml_pose_7
  PandaDock generated structure

 13 13  0  0  0  0  0  0  0  0999 V2000
  -13.9859  -16.6223    8.5815 O   0  0  0  0  0  0  0  0  0  0  0  0
  -15.2233  -17.3887    8.3046 C   0  0  0  0  0  0  0  0  0  0  0  0
  -15.8682  -17.3026    7.0215 C   0  0  0  0  0  0  0  0  0  0  0  0
  -15.7791  -18.2008    9.2662 C   0  0  0  0  0  0  0  0  0  0  0  0
  -17.0232  -18.0371    6.7712 C   0  0  0  0  0  0  0  0  0  0  0  0
  -15.3136  -16.3667    5.9680 C   0  0  0  0  0  0  0  0  0  0  0  0
  -17.4919  -18.8885    7.8586 C   0  0  0  0  0  0  0  0  0  0  0  0
  -16.8319  -18.8877    8.9775 C   0  0  0  0  0  0  0  0  0  0  0  0
  -15.0444  -18.2497   10.5936 C   0  0  0  0  0  0  0  0  0  0  0  0
  -14.4698  -17.1759    4.9494 C   0  0  0  0  0  0  0  0  0  0  0  0
  -16.3754  -15.6045    5.2802 C   0  0  0  0  0  0  0  0  0  0  0  0
  -15.8243  -17.6261   11.7231 C   0  0  0  0  0  0  0  0  0  0  0  0
  -14.8689  -19.7494   11.0446 C   0  0  0  0  0  0  0  0  0  0  0  0
  1  2  1  0  0  0  0
  2  3  1  0  0  0  0
  2  4  1  0  0  0  0
  3  5  1  0  0  0  0
  3  6  1  0  0  0  0
  4  8  1  0  0  0  0
  4  9  1  0  0  0  0
  5  7  1  0  0  0  0
  6 10  1  0  0  0  0
  6 11  1  0  0  0  0
  7  8  1  0  0  0  0
  9 12  1  0  0  0  0
  9 13  1  0  0  0  0
M  END
>  <Score>
0.317497

>  <Energy>
-7.075446

>  <Confidence>
0.682503

>  <Binding_Affinity>
-8.150052

>  <IC50_nM>
1060.1

$$$$
