ml_pose_11
  PandaDock generated structure

 13 13  0  0  0  0  0  0  0  0999 V2000
  -15.6503  -15.6705    8.1712 O   0  0  0  0  0  0  0  0  0  0  0  0
  -15.6282  -17.1197    8.0459 C   0  0  0  0  0  0  0  0  0  0  0  0
  -15.0226  -17.7687    7.2071 C   0  0  0  0  0  0  0  0  0  0  0  0
  -16.4573  -17.8371    9.1574 C   0  0  0  0  0  0  0  0  0  0  0  0
  -14.9838  -19.2309    7.2987 C   0  0  0  0  0  0  0  0  0  0  0  0
  -14.1439  -17.1895    6.1888 C   0  0  0  0  0  0  0  0  0  0  0  0
  -15.7350  -19.8731    8.2024 C   0  0  0  0  0  0  0  0  0  0  0  0
  -16.4638  -19.1348    9.1840 C   0  0  0  0  0  0  0  0  0  0  0  0
  -17.2353  -16.9818   10.1826 C   0  0  0  0  0  0  0  0  0  0  0  0
  -12.7779  -17.0777    6.3916 C   0  0  0  0  0  0  0  0  0  0  0  0
  -14.4226  -17.8030    4.8326 C   0  0  0  0  0  0  0  0  0  0  0  0
  -18.7013  -16.9437    9.9013 C   0  0  0  0  0  0  0  0  0  0  0  0
  -16.8780  -17.4695   11.5765 C   0  0  0  0  0  0  0  0  0  0  0  0
  1  2  1  0  0  0  0
  2  3  1  0  0  0  0
  2  4  1  0  0  0  0
  3  5  1  0  0  0  0
  3  6  1  0  0  0  0
  4  8  1  0  0  0  0
  4  9  1  0  0  0  0
  5  7  1  0  0  0  0
  6 10  1  0  0  0  0
  6 11  1  0  0  0  0
  7  8  1  0  0  0  0
  9 12  1  0  0  0  0
  9 13  1  0  0  0  0
M  END
>  <Score>
0.349203

>  <Energy>
-7.304834

>  <Confidence>
0.650797

>  <Binding_Affinity>
-7.515937

>  <IC50_nM>
3091.8

$$$$
