ml_pose_1
  PandaDock generated structure

 13 13  0  0  0  0  0  0  0  0999 V2000
  -16.0516  -17.0245    9.9784 O   0  0  0  0  0  0  0  0  0  0  0  0
  -15.6947  -17.4826    8.6810 C   0  0  0  0  0  0  0  0  0  0  0  0
  -15.5476  -18.8065    8.5561 C   0  0  0  0  0  0  0  0  0  0  0  0
  -15.8035  -16.6330    7.5932 C   0  0  0  0  0  0  0  0  0  0  0  0
  -15.2853  -19.3396    7.2633 C   0  0  0  0  0  0  0  0  0  0  0  0
  -15.6618  -19.7300    9.6185 C   0  0  0  0  0  0  0  0  0  0  0  0
  -15.2853  -18.4640    6.1215 C   0  0  0  0  0  0  0  0  0  0  0  0
  -15.5435  -17.1128    6.3281 C   0  0  0  0  0  0  0  0  0  0  0  0
  -16.0782  -15.1821    7.9156 C   0  0  0  0  0  0  0  0  0  0  0  0
  -16.8748  -20.5627    9.7987 C   0  0  0  0  0  0  0  0  0  0  0  0
  -14.4574  -20.8025    9.7021 C   0  0  0  0  0  0  0  0  0  0  0  0
  -14.7349  -14.2895    7.8184 C   0  0  0  0  0  0  0  0  0  0  0  0
  -17.0814  -14.6703    6.9652 C   0  0  0  0  0  0  0  0  0  0  0  0
  1  2  1  0  0  0  0
  2  3  1  0  0  0  0
  2  4  1  0  0  0  0
  3  5  1  0  0  0  0
  3  6  1  0  0  0  0
  4  8  1  0  0  0  0
  4  9  1  0  0  0  0
  5  7  1  0  0  0  0
  6 10  1  0  0  0  0
  6 11  1  0  0  0  0
  7  8  1  0  0  0  0
  9 12  1  0  0  0  0
  9 13  1  0  0  0  0
M  END
>  <Score>
0.211531

>  <Energy>
-7.399321

>  <Confidence>
0.788469

>  <Binding_Affinity>
-10.269383

>  <IC50_nM>
29.6

$$$$
