ml_pose_25
  PandaDock generated structure

 13 13  0  0  0  0  0  0  0  0999 V2000
  -14.5728  -17.9714    9.8685 O   0  0  0  0  0  0  0  0  0  0  0  0
  -15.3059  -17.7894    8.6761 C   0  0  0  0  0  0  0  0  0  0  0  0
  -15.1832  -16.6623    7.7504 C   0  0  0  0  0  0  0  0  0  0  0  0
  -16.5189  -18.6729    8.4209 C   0  0  0  0  0  0  0  0  0  0  0  0
  -15.8468  -16.4877    6.7095 C   0  0  0  0  0  0  0  0  0  0  0  0
  -14.0731  -15.6199    8.1799 C   0  0  0  0  0  0  0  0  0  0  0  0
  -16.8699  -17.4835    6.3642 C   0  0  0  0  0  0  0  0  0  0  0  0
  -17.1606  -18.5138    7.2696 C   0  0  0  0  0  0  0  0  0  0  0  0
  -16.6506  -19.9018    9.3343 C   0  0  0  0  0  0  0  0  0  0  0  0
  -12.7066  -16.0426    7.3017 C   0  0  0  0  0  0  0  0  0  0  0  0
  -14.5278  -14.1910    7.8750 C   0  0  0  0  0  0  0  0  0  0  0  0
  -18.0077  -19.5834   10.0510 C   0  0  0  0  0  0  0  0  0  0  0  0
  -16.6762  -21.1803    8.5388 C   0  0  0  0  0  0  0  0  0  0  0  0
  1  2  1  0  0  0  0
  2  3  1  0  0  0  0
  2  4  1  0  0  0  0
  3  5  1  0  0  0  0
  3  6  1  0  0  0  0
  4  8  1  0  0  0  0
  4  9  1  0  0  0  0
  5  7  1  0  0  0  0
  6 10  1  0  0  0  0
  6 11  1  0  0  0  0
  7  8  1  0  0  0  0
  9 12  1  0  0  0  0
  9 13  1  0  0  0  0
M  END
>  <Score>
0.270133

>  <Energy>
-6.342206

>  <Confidence>
0.729867

>  <Binding_Affinity>
-9.097333

>  <IC50_nM>
214.3

$$$$
