ml_pose_14
  PandaDock generated structure

 13 13  0  0  0  0  0  0  0  0999 V2000
  -16.0081  -16.0584    7.1051 O   0  0  0  0  0  0  0  0  0  0  0  0
  -15.7447  -17.2032    7.8179 C   0  0  0  0  0  0  0  0  0  0  0  0
  -16.6103  -18.4408    7.7012 C   0  0  0  0  0  0  0  0  0  0  0  0
  -14.7253  -17.2371    8.8184 C   0  0  0  0  0  0  0  0  0  0  0  0
  -16.3294  -19.4616    8.4535 C   0  0  0  0  0  0  0  0  0  0  0  0
  -17.6956  -18.2640    6.5807 C   0  0  0  0  0  0  0  0  0  0  0  0
  -15.3821  -19.4410    9.5079 C   0  0  0  0  0  0  0  0  0  0  0  0
  -14.6248  -18.3937    9.6426 C   0  0  0  0  0  0  0  0  0  0  0  0
  -13.9398  -15.9748    8.9728 C   0  0  0  0  0  0  0  0  0  0  0  0
  -17.2606  -19.1428    5.4224 C   0  0  0  0  0  0  0  0  0  0  0  0
  -18.9609  -18.9377    7.1405 C   0  0  0  0  0  0  0  0  0  0  0  0
  -14.3226  -15.1888   10.2307 C   0  0  0  0  0  0  0  0  0  0  0  0
  -12.4956  -16.3561    8.9465 C   0  0  0  0  0  0  0  0  0  0  0  0
  1  2  1  0  0  0  0
  2  3  1  0  0  0  0
  2  4  1  0  0  0  0
  3  5  1  0  0  0  0
  3  6  1  0  0  0  0
  4  8  1  0  0  0  0
  4  9  1  0  0  0  0
  5  7  1  0  0  0  0
  6 10  1  0  0  0  0
  6 11  1  0  0  0  0
  7  8  1  0  0  0  0
  9 12  1  0  0  0  0
  9 13  1  0  0  0  0
M  END
>  <Score>
0.142971

>  <Energy>
-8.080826

>  <Confidence>
0.857029

>  <Binding_Affinity>
-11.640580

>  <IC50_nM>
2.9

$$$$
