ml_pose_10
  PandaDock generated structure

 13 13  0  0  0  0  0  0  0  0999 V2000
  -17.0928  -19.0404    7.4613 O   0  0  0  0  0  0  0  0  0  0  0  0
  -16.1211  -18.0667    8.0318 C   0  0  0  0  0  0  0  0  0  0  0  0
  -15.2534  -17.4540    7.0565 C   0  0  0  0  0  0  0  0  0  0  0  0
  -16.0086  -17.8851    9.2184 C   0  0  0  0  0  0  0  0  0  0  0  0
  -14.2297  -16.6846    7.5380 C   0  0  0  0  0  0  0  0  0  0  0  0
  -15.2544  -17.8907    5.5796 C   0  0  0  0  0  0  0  0  0  0  0  0
  -14.2805  -16.2586    8.8765 C   0  0  0  0  0  0  0  0  0  0  0  0
  -15.1228  -16.8914    9.8466 C   0  0  0  0  0  0  0  0  0  0  0  0
  -17.0953  -18.3336   10.2527 C   0  0  0  0  0  0  0  0  0  0  0  0
  -15.9181  -16.7724    4.9291 C   0  0  0  0  0  0  0  0  0  0  0  0
  -13.7617  -18.0997    5.1883 C   0  0  0  0  0  0  0  0  0  0  0  0
  -16.3285  -19.3708   11.1255 C   0  0  0  0  0  0  0  0  0  0  0  0
  -17.6332  -17.3520   11.2357 C   0  0  0  0  0  0  0  0  0  0  0  0
  1  2  1  0  0  0  0
  2  3  1  0  0  0  0
  2  4  1  0  0  0  0
  3  5  1  0  0  0  0
  3  6  1  0  0  0  0
  4  8  1  0  0  0  0
  4  9  1  0  0  0  0
  5  7  1  0  0  0  0
  6 10  1  0  0  0  0
  6 11  1  0  0  0  0
  7  8  1  0  0  0  0
  9 12  1  0  0  0  0
  9 13  1  0  0  0  0
M  END
>  <Score>
0.111264

>  <Energy>
-8.485458

>  <Confidence>
0.888736

>  <Binding_Affinity>
-8.625415

>  <IC50_nM>
475.2

$$$$
ml_pose_2
  PandaDock generated structure

 13 13  0  0  0  0  0  0  0  0999 V2000
  -15.3437  -15.7437    8.2285 O   0  0  0  0  0  0  0  0  0  0  0  0
  -15.6260  -17.1661    8.1831 C   0  0  0  0  0  0  0  0  0  0  0  0
  -16.8354  -17.5284    8.0695 C   0  0  0  0  0  0  0  0  0  0  0  0
  -14.6316  -18.0289    8.3384 C   0  0  0  0  0  0  0  0  0  0  0  0
  -17.1418  -18.9069    8.1230 C   0  0  0  0  0  0  0  0  0  0  0  0
  -17.9916  -16.6144    8.0147 C   0  0  0  0  0  0  0  0  0  0  0  0
  -16.0860  -19.8082    8.1486 C   0  0  0  0  0  0  0  0  0  0  0  0
  -14.8608  -19.4159    8.3160 C   0  0  0  0  0  0  0  0  0  0  0  0
  -13.0954  -17.5171    8.3540 C   0  0  0  0  0  0  0  0  0  0  0  0
  -18.6134  -16.4564    6.5807 C   0  0  0  0  0  0  0  0  0  0  0  0
  -19.1615  -17.0134    8.8674 C   0  0  0  0  0  0  0  0  0  0  0  0
  -12.5262  -17.6876    9.8068 C   0  0  0  0  0  0  0  0  0  0  0  0
  -12.1866  -18.2130    7.3095 C   0  0  0  0  0  0  0  0  0  0  0  0
  1  2  1  0  0  0  0
  2  3  1  0  0  0  0
  2  4  1  0  0  0  0
  3  5  1  0  0  0  0
  3  6  1  0  0  0  0
  4  8  1  0  0  0  0
  4  9  1  0  0  0  0
  5  7  1  0  0  0  0
  6 10  1  0  0  0  0
  6 11  1  0  0  0  0
  7  8  1  0  0  0  0
  9 12  1  0  0  0  0
  9 13  1  0  0  0  0
M  END
>  <Score>
0.130098

>  <Energy>
-6.350283

>  <Confidence>
0.869902

>  <Binding_Affinity>
-6.645310

>  <IC50_nM>
13441.7

$$$$
ml_pose_19
  PandaDock generated structure

 13 13  0  0  0  0  0  0  0  0999 V2000
  -16.1923  -19.5837    7.7458 O   0  0  0  0  0  0  0  0  0  0  0  0
  -15.9257  -18.2435    8.0422 C   0  0  0  0  0  0  0  0  0  0  0  0
  -15.7622  -17.3360    7.0375 C   0  0  0  0  0  0  0  0  0  0  0  0
  -15.4895  -17.9365    9.2251 C   0  0  0  0  0  0  0  0  0  0  0  0
  -15.5411  -15.9464    7.4811 C   0  0  0  0  0  0  0  0  0  0  0  0
  -16.2315  -17.6252    5.7055 C   0  0  0  0  0  0  0  0  0  0  0  0
  -15.0796  -15.6944    8.6513 C   0  0  0  0  0  0  0  0  0  0  0  0
  -15.0747  -16.5622    9.6828 C   0  0  0  0  0  0  0  0  0  0  0  0
  -15.4303  -18.9270   10.4390 C   0  0  0  0  0  0  0  0  0  0  0  0
  -17.7284  -17.2349    5.3537 C   0  0  0  0  0  0  0  0  0  0  0  0
  -15.3805  -17.0281    4.6699 C   0  0  0  0  0  0  0  0  0  0  0  0
  -14.0473  -19.3992   10.6940 C   0  0  0  0  0  0  0  0  0  0  0  0
  -16.2167  -18.5830   11.6121 C   0  0  0  0  0  0  0  0  0  0  0  0
  1  2  1  0  0  0  0
  2  3  1  0  0  0  0
  2  4  1  0  0  0  0
  3  5  1  0  0  0  0
  3  6  1  0  0  0  0
  4  8  1  0  0  0  0
  4  9  1  0  0  0  0
  5  7  1  0  0  0  0
  6 10  1  0  0  0  0
  6 11  1  0  0  0  0
  7  8  1  0  0  0  0
  9 12  1  0  0  0  0
  9 13  1  0  0  0  0
M  END
>  <Score>
0.145045

>  <Energy>
-6.495232

>  <Confidence>
0.854955

>  <Binding_Affinity>
-5.356876

>  <IC50_nM>
118298.3

$$$$
ml_pose_25
  PandaDock generated structure

 13 13  0  0  0  0  0  0  0  0999 V2000
  -17.2143  -16.5078    8.3439 O   0  0  0  0  0  0  0  0  0  0  0  0
  -16.1560  -17.3054    8.2468 C   0  0  0  0  0  0  0  0  0  0  0  0
  -16.2571  -18.7272    8.7160 C   0  0  0  0  0  0  0  0  0  0  0  0
  -14.9970  -16.7846    7.6532 C   0  0  0  0  0  0  0  0  0  0  0  0
  -15.1157  -19.5260    8.5336 C   0  0  0  0  0  0  0  0  0  0  0  0
  -17.5274  -19.1326    9.3136 C   0  0  0  0  0  0  0  0  0  0  0  0
  -13.9896  -19.0488    8.0339 C   0  0  0  0  0  0  0  0  0  0  0  0
  -13.9412  -17.7511    7.6726 C   0  0  0  0  0  0  0  0  0  0  0  0
  -14.9243  -15.4178    7.1668 C   0  0  0  0  0  0  0  0  0  0  0  0
  -18.2628  -20.0036    8.3284 C   0  0  0  0  0  0  0  0  0  0  0  0
  -17.1573  -19.9605   10.5943 C   0  0  0  0  0  0  0  0  0  0  0  0
  -14.1188  -14.6094    8.0412 C   0  0  0  0  0  0  0  0  0  0  0  0
  -14.4386  -15.3253    5.6957 C   0  0  0  0  0  0  0  0  0  0  0  0
  1  2  1  0  0  0  0
  2  3  1  0  0  0  0
  2  4  1  0  0  0  0
  3  5  1  0  0  0  0
  3  6  1  0  0  0  0
  4  8  1  0  0  0  0
  4  9  1  0  0  0  0
  5  7  1  0  0  0  0
  6 10  1  0  0  0  0
  6 11  1  0  0  0  0
  7  8  1  0  0  0  0
  9 12  1  0  0  0  0
  9 13  1  0  0  0  0
M  END
>  <Score>
0.153179

>  <Energy>
-6.289997

>  <Confidence>
0.846821

>  <Binding_Affinity>
-4.612020

>  <IC50_nM>
415928.4

$$$$
ml_pose_15
  PandaDock generated structure

 13 13  0  0  0  0  0  0  0  0999 V2000
  -15.2117  -17.2304   10.0070 O   0  0  0  0  0  0  0  0  0  0  0  0
  -15.5160  -17.5413    8.8080 C   0  0  0  0  0  0  0  0  0  0  0  0
  -14.6602  -18.2106    7.8979 C   0  0  0  0  0  0  0  0  0  0  0  0
  -16.7589  -17.1557    8.3056 C   0  0  0  0  0  0  0  0  0  0  0  0
  -14.9950  -18.5218    6.6122 C   0  0  0  0  0  0  0  0  0  0  0  0
  -13.2441  -18.5609    8.3670 C   0  0  0  0  0  0  0  0  0  0  0  0
  -16.2851  -18.1111    6.1753 C   0  0  0  0  0  0  0  0  0  0  0  0
  -17.1402  -17.5604    6.9346 C   0  0  0  0  0  0  0  0  0  0  0  0
  -17.7833  -16.5705    9.1182 C   0  0  0  0  0  0  0  0  0  0  0  0
  -13.2277  -20.0845    8.8443 C   0  0  0  0  0  0  0  0  0  0  0  0
  -12.1794  -18.3053    7.2587 C   0  0  0  0  0  0  0  0  0  0  0  0
  -17.9265  -15.0426    8.7778 C   0  0  0  0  0  0  0  0  0  0  0  0
  -19.1720  -17.2050    9.2334 C   0  0  0  0  0  0  0  0  0  0  0  0
  1  2  1  0  0  0  0
  2  3  1  0  0  0  0
  2  4  1  0  0  0  0
  3  5  1  0  0  0  0
  3  6  1  0  0  0  0
  4  8  1  0  0  0  0
  4  9  1  0  0  0  0
  5  7  1  0  0  0  0
  6 10  1  0  0  0  0
  6 11  1  0  0  0  0
  7  8  1  0  0  0  0
  9 12  1  0  0  0  0
  9 13  1  0  0  0  0
M  END
>  <Score>
0.160134

>  <Energy>
-7.467010

>  <Confidence>
0.839866

>  <Binding_Affinity>
-4.183157

>  <IC50_nM>
857846.0

$$$$
ml_pose_11
  PandaDock generated structure

 13 13  0  0  0  0  0  0  0  0999 V2000
  -15.2626  -16.6019    6.6394 O   0  0  0  0  0  0  0  0  0  0  0  0
  -15.6741  -17.4289    7.7007 C   0  0  0  0  0  0  0  0  0  0  0  0
  -15.2213  -18.6698    7.7462 C   0  0  0  0  0  0  0  0  0  0  0  0
  -16.3630  -16.7971    8.8169 C   0  0  0  0  0  0  0  0  0  0  0  0
  -15.3645  -19.5096    8.9303 C   0  0  0  0  0  0  0  0  0  0  0  0
  -14.4069  -19.2876    6.5857 C   0  0  0  0  0  0  0  0  0  0  0  0
  -16.0517  -18.8395    9.9830 C   0  0  0  0  0  0  0  0  0  0  0  0
  -16.4644  -17.6016    9.8804 C   0  0  0  0  0  0  0  0  0  0  0  0
  -16.8816  -15.4533    8.6010 C   0  0  0  0  0  0  0  0  0  0  0  0
  -12.8716  -19.0985    6.8511 C   0  0  0  0  0  0  0  0  0  0  0  0
  -14.8009  -20.7688    6.3066 C   0  0  0  0  0  0  0  0  0  0  0  0
  -18.3362  -15.3539    8.4211 C   0  0  0  0  0  0  0  0  0  0  0  0
  -16.4013  -14.6896    9.8777 C   0  0  0  0  0  0  0  0  0  0  0  0
  1  2  1  0  0  0  0
  2  3  1  0  0  0  0
  2  4  1  0  0  0  0
  3  5  1  0  0  0  0
  3  6  1  0  0  0  0
  4  8  1  0  0  0  0
  4  9  1  0  0  0  0
  5  7  1  0  0  0  0
  6 10  1  0  0  0  0
  6 11  1  0  0  0  0
  7  8  1  0  0  0  0
  9 12  1  0  0  0  0
  9 13  1  0  0  0  0
M  END
>  <Score>
0.207544

>  <Energy>
-6.349110

>  <Confidence>
0.792456

>  <Binding_Affinity>
-3.000000

>  <IC50_nM>
6320605.5

$$$$
ml_pose_3
  PandaDock generated structure

 13 13  0  0  0  0  0  0  0  0999 V2000
  -15.2216  -18.8777    6.6659 O   0  0  0  0  0  0  0  0  0  0  0  0
  -15.5981  -18.0111    7.6342 C   0  0  0  0  0  0  0  0  0  0  0  0
  -14.6394  -17.0209    8.0421 C   0  0  0  0  0  0  0  0  0  0  0  0
  -16.6754  -18.3082    8.4717 C   0  0  0  0  0  0  0  0  0  0  0  0
  -14.9393  -16.1949    9.1683 C   0  0  0  0  0  0  0  0  0  0  0  0
  -13.4550  -16.7727    7.2175 C   0  0  0  0  0  0  0  0  0  0  0  0
  -16.2127  -16.3163    9.8252 C   0  0  0  0  0  0  0  0  0  0  0  0
  -17.0602  -17.5061    9.5916 C   0  0  0  0  0  0  0  0  0  0  0  0
  -17.6967  -19.3873    8.0914 C   0  0  0  0  0  0  0  0  0  0  0  0
  -13.6612  -15.6686    6.2303 C   0  0  0  0  0  0  0  0  0  0  0  0
  -12.2886  -16.5058    8.2134 C   0  0  0  0  0  0  0  0  0  0  0  0
  -17.5216  -20.5660    9.1682 C   0  0  0  0  0  0  0  0  0  0  0  0
  -19.1301  -18.9644    8.0202 C   0  0  0  0  0  0  0  0  0  0  0  0
  1  2  1  0  0  0  0
  2  3  1  0  0  0  0
  2  4  1  0  0  0  0
  3  5  1  0  0  0  0
  3  6  1  0  0  0  0
  4  8  1  0  0  0  0
  4  9  1  0  0  0  0
  5  7  1  0  0  0  0
  6 10  1  0  0  0  0
  6 11  1  0  0  0  0
  7  8  1  0  0  0  0
  9 12  1  0  0  0  0
  9 13  1  0  0  0  0
M  END
>  <Score>
0.210952

>  <Energy>
-7.000391

>  <Confidence>
0.789048

>  <Binding_Affinity>
-3.000000

>  <IC50_nM>
6320605.5

$$$$
ml_pose_26
  PandaDock generated structure

 13 13  0  0  0  0  0  0  0  0999 V2000
  -14.3600  -17.0572    6.9056 O   0  0  0  0  0  0  0  0  0  0  0  0
  -15.3595  -17.4830    7.7431 C   0  0  0  0  0  0  0  0  0  0  0  0
  -15.1541  -18.7866    8.4360 C   0  0  0  0  0  0  0  0  0  0  0  0
  -16.2395  -16.6682    8.0902 C   0  0  0  0  0  0  0  0  0  0  0  0
  -16.1205  -19.2188    9.2183 C   0  0  0  0  0  0  0  0  0  0  0  0
  -14.0088  -19.7107    8.1062 C   0  0  0  0  0  0  0  0  0  0  0  0
  -17.3186  -18.4328    9.5792 C   0  0  0  0  0  0  0  0  0  0  0  0
  -17.3353  -17.2815    8.9814 C   0  0  0  0  0  0  0  0  0  0  0  0
  -16.5293  -15.2536    7.4562 C   0  0  0  0  0  0  0  0  0  0  0  0
  -12.8789  -19.5559    9.1675 C   0  0  0  0  0  0  0  0  0  0  0  0
  -14.4334  -21.0901    7.8014 C   0  0  0  0  0  0  0  0  0  0  0  0
  -17.6086  -15.2919    6.3266 C   0  0  0  0  0  0  0  0  0  0  0  0
  -16.7535  -14.2697    8.5283 C   0  0  0  0  0  0  0  0  0  0  0  0
  1  2  1  0  0  0  0
  2  3  1  0  0  0  0
  2  4  1  0  0  0  0
  3  5  1  0  0  0  0
  3  6  1  0  0  0  0
  4  8  1  0  0  0  0
  4  9  1  0  0  0  0
  5  7  1  0  0  0  0
  6 10  1  0  0  0  0
  6 11  1  0  0  0  0
  7  8  1  0  0  0  0
  9 12  1  0  0  0  0
  9 13  1  0  0  0  0
M  END
>  <Score>
0.216409

>  <Energy>
-5.383147

>  <Confidence>
0.783591

>  <Binding_Affinity>
-3.000000

>  <IC50_nM>
6320605.5

$$$$
ml_pose_18
  PandaDock generated structure

 13 13  0  0  0  0  0  0  0  0999 V2000
  -15.9042  -19.5535    8.9228 O   0  0  0  0  0  0  0  0  0  0  0  0
  -15.7821  -18.2281    8.4471 C   0  0  0  0  0  0  0  0  0  0  0  0
  -14.5620  -17.8084    7.8069 C   0  0  0  0  0  0  0  0  0  0  0  0
  -16.8175  -17.3359    8.6100 C   0  0  0  0  0  0  0  0  0  0  0  0
  -14.3588  -16.5452    7.3334 C   0  0  0  0  0  0  0  0  0  0  0  0
  -13.4070  -18.9257    7.6804 C   0  0  0  0  0  0  0  0  0  0  0  0
  -15.4700  -15.6543    7.3643 C   0  0  0  0  0  0  0  0  0  0  0  0
  -16.6310  -16.0618    7.8934 C   0  0  0  0  0  0  0  0  0  0  0  0
  -18.1802  -17.7114    9.0893 C   0  0  0  0  0  0  0  0  0  0  0  0
  -13.4186  -19.5367    6.3215 C   0  0  0  0  0  0  0  0  0  0  0  0
  -12.0351  -18.1521    8.0208 C   0  0  0  0  0  0  0  0  0  0  0  0
  -18.2644  -17.1599   10.5440 C   0  0  0  0  0  0  0  0  0  0  0  0
  -19.2691  -17.4271    8.3060 C   0  0  0  0  0  0  0  0  0  0  0  0
  1  2  1  0  0  0  0
  2  3  1  0  0  0  0
  2  4  1  0  0  0  0
  3  5  1  0  0  0  0
  3  6  1  0  0  0  0
  4  8  1  0  0  0  0
  4  9  1  0  0  0  0
  5  7  1  0  0  0  0
  6 10  1  0  0  0  0
  6 11  1  0  0  0  0
  7  8  1  0  0  0  0
  9 12  1  0  0  0  0
  9 13  1  0  0  0  0
M  END
>  <Score>
0.217762

>  <Energy>
-5.228864

>  <Confidence>
0.782238

>  <Binding_Affinity>
-3.000000

>  <IC50_nM>
6320605.5

$$$$
ml_pose_20
  PandaDock generated structure

 13 13  0  0  0  0  0  0  0  0999 V2000
  -17.0231  -16.4705    7.3902 O   0  0  0  0  0  0  0  0  0  0  0  0
  -16.1081  -17.3440    7.8611 C   0  0  0  0  0  0  0  0  0  0  0  0
  -14.9609  -16.8759    8.5153 C   0  0  0  0  0  0  0  0  0  0  0  0
  -16.3108  -18.7414    7.8209 C   0  0  0  0  0  0  0  0  0  0  0  0
  -14.0732  -17.7157    8.9950 C   0  0  0  0  0  0  0  0  0  0  0  0
  -14.7422  -15.3721    8.6378 C   0  0  0  0  0  0  0  0  0  0  0  0
  -14.1691  -18.9851    9.0905 C   0  0  0  0  0  0  0  0  0  0  0  0
  -15.3601  -19.5560    8.5625 C   0  0  0  0  0  0  0  0  0  0  0  0
  -17.5728  -19.3007    7.3378 C   0  0  0  0  0  0  0  0  0  0  0  0
  -15.0798  -14.7028    9.9004 C   0  0  0  0  0  0  0  0  0  0  0  0
  -13.1381  -15.0641    8.2005 C   0  0  0  0  0  0  0  0  0  0  0  0
  -17.3065  -19.7890    5.8687 C   0  0  0  0  0  0  0  0  0  0  0  0
  -18.2553  -20.1827    8.1594 C   0  0  0  0  0  0  0  0  0  0  0  0
  1  2  1  0  0  0  0
  2  3  1  0  0  0  0
  2  4  1  0  0  0  0
  3  5  1  0  0  0  0
  3  6  1  0  0  0  0
  4  8  1  0  0  0  0
  4  9  1  0  0  0  0
  5  7  1  0  0  0  0
  6 10  1  0  0  0  0
  6 11  1  0  0  0  0
  7  8  1  0  0  0  0
  9 12  1  0  0  0  0
  9 13  1  0  0  0  0
M  END
>  <Score>
0.294862

>  <Energy>
-6.991794

>  <Confidence>
0.705138

>  <Binding_Affinity>
-3.000000

>  <IC50_nM>
6320605.5

$$$$
