ml_pose_3
  PandaDock generated structure

 13 13  0  0  0  0  0  0  0  0999 V2000
  -15.2216  -18.8777    6.6659 O   0  0  0  0  0  0  0  0  0  0  0  0
  -15.5981  -18.0111    7.6342 C   0  0  0  0  0  0  0  0  0  0  0  0
  -14.6394  -17.0209    8.0421 C   0  0  0  0  0  0  0  0  0  0  0  0
  -16.6754  -18.3082    8.4717 C   0  0  0  0  0  0  0  0  0  0  0  0
  -14.9393  -16.1949    9.1683 C   0  0  0  0  0  0  0  0  0  0  0  0
  -13.4550  -16.7727    7.2175 C   0  0  0  0  0  0  0  0  0  0  0  0
  -16.2127  -16.3163    9.8252 C   0  0  0  0  0  0  0  0  0  0  0  0
  -17.0602  -17.5061    9.5916 C   0  0  0  0  0  0  0  0  0  0  0  0
  -17.6967  -19.3873    8.0914 C   0  0  0  0  0  0  0  0  0  0  0  0
  -13.6612  -15.6686    6.2303 C   0  0  0  0  0  0  0  0  0  0  0  0
  -12.2886  -16.5058    8.2134 C   0  0  0  0  0  0  0  0  0  0  0  0
  -17.5216  -20.5660    9.1682 C   0  0  0  0  0  0  0  0  0  0  0  0
  -19.1301  -18.9644    8.0202 C   0  0  0  0  0  0  0  0  0  0  0  0
  1  2  1  0  0  0  0
  2  3  1  0  0  0  0
  2  4  1  0  0  0  0
  3  5  1  0  0  0  0
  3  6  1  0  0  0  0
  4  8  1  0  0  0  0
  4  9  1  0  0  0  0
  5  7  1  0  0  0  0
  6 10  1  0  0  0  0
  6 11  1  0  0  0  0
  7  8  1  0  0  0  0
  9 12  1  0  0  0  0
  9 13  1  0  0  0  0
M  END
>  <Score>
0.210952

>  <Energy>
-7.000391

>  <Confidence>
0.789048

>  <Binding_Affinity>
-3.111030

>  <IC50_nM>
5240403.7

$$$$
