ml_pose_20
  PandaDock generated structure

 13 13  0  0  0  0  0  0  0  0999 V2000
  -17.0231  -16.4705    7.3902 O   0  0  0  0  0  0  0  0  0  0  0  0
  -16.1081  -17.3440    7.8611 C   0  0  0  0  0  0  0  0  0  0  0  0
  -14.9609  -16.8759    8.5153 C   0  0  0  0  0  0  0  0  0  0  0  0
  -16.3108  -18.7414    7.8209 C   0  0  0  0  0  0  0  0  0  0  0  0
  -14.0732  -17.7157    8.9950 C   0  0  0  0  0  0  0  0  0  0  0  0
  -14.7422  -15.3721    8.6378 C   0  0  0  0  0  0  0  0  0  0  0  0
  -14.1691  -18.9851    9.0905 C   0  0  0  0  0  0  0  0  0  0  0  0
  -15.3601  -19.5560    8.5625 C   0  0  0  0  0  0  0  0  0  0  0  0
  -17.5728  -19.3007    7.3378 C   0  0  0  0  0  0  0  0  0  0  0  0
  -15.0798  -14.7028    9.9004 C   0  0  0  0  0  0  0  0  0  0  0  0
  -13.1381  -15.0641    8.2005 C   0  0  0  0  0  0  0  0  0  0  0  0
  -17.3065  -19.7890    5.8687 C   0  0  0  0  0  0  0  0  0  0  0  0
  -18.2553  -20.1827    8.1594 C   0  0  0  0  0  0  0  0  0  0  0  0
  1  2  1  0  0  0  0
  2  3  1  0  0  0  0
  2  4  1  0  0  0  0
  3  5  1  0  0  0  0
  3  6  1  0  0  0  0
  4  8  1  0  0  0  0
  4  9  1  0  0  0  0
  5  7  1  0  0  0  0
  6 10  1  0  0  0  0
  6 11  1  0  0  0  0
  7  8  1  0  0  0  0
  9 12  1  0  0  0  0
  9 13  1  0  0  0  0
M  END
>  <Score>
0.294862

>  <Energy>
-6.991794

>  <Confidence>
0.705138

>  <Binding_Affinity>
-3.193220

>  <IC50_nM>
4561552.3

$$$$
