ml_pose_11
  PandaDock generated structure

 13 13  0  0  0  0  0  0  0  0999 V2000
  -15.2626  -16.6019    6.6394 O   0  0  0  0  0  0  0  0  0  0  0  0
  -15.6741  -17.4289    7.7007 C   0  0  0  0  0  0  0  0  0  0  0  0
  -15.2213  -18.6698    7.7462 C   0  0  0  0  0  0  0  0  0  0  0  0
  -16.3630  -16.7971    8.8169 C   0  0  0  0  0  0  0  0  0  0  0  0
  -15.3645  -19.5096    8.9303 C   0  0  0  0  0  0  0  0  0  0  0  0
  -14.4069  -19.2876    6.5857 C   0  0  0  0  0  0  0  0  0  0  0  0
  -16.0517  -18.8395    9.9830 C   0  0  0  0  0  0  0  0  0  0  0  0
  -16.4644  -17.6016    9.8804 C   0  0  0  0  0  0  0  0  0  0  0  0
  -16.8816  -15.4533    8.6010 C   0  0  0  0  0  0  0  0  0  0  0  0
  -12.8716  -19.0985    6.8511 C   0  0  0  0  0  0  0  0  0  0  0  0
  -14.8009  -20.7688    6.3066 C   0  0  0  0  0  0  0  0  0  0  0  0
  -18.3362  -15.3539    8.4211 C   0  0  0  0  0  0  0  0  0  0  0  0
  -16.4013  -14.6896    9.8777 C   0  0  0  0  0  0  0  0  0  0  0  0
  1  2  1  0  0  0  0
  2  3  1  0  0  0  0
  2  4  1  0  0  0  0
  3  5  1  0  0  0  0
  3  6  1  0  0  0  0
  4  8  1  0  0  0  0
  4  9  1  0  0  0  0
  5  7  1  0  0  0  0
  6 10  1  0  0  0  0
  6 11  1  0  0  0  0
  7  8  1  0  0  0  0
  9 12  1  0  0  0  0
  9 13  1  0  0  0  0
M  END
>  <Score>
0.207544

>  <Energy>
-6.349110

>  <Confidence>
0.792456

>  <Binding_Affinity>
-3.000000

>  <IC50_nM>
6320605.5

$$$$
