ml_pose_18
  PandaDock generated structure

 13 13  0  0  0  0  0  0  0  0999 V2000
  -15.9042  -19.5535    8.9228 O   0  0  0  0  0  0  0  0  0  0  0  0
  -15.7821  -18.2281    8.4471 C   0  0  0  0  0  0  0  0  0  0  0  0
  -14.5620  -17.8084    7.8069 C   0  0  0  0  0  0  0  0  0  0  0  0
  -16.8175  -17.3359    8.6100 C   0  0  0  0  0  0  0  0  0  0  0  0
  -14.3588  -16.5452    7.3334 C   0  0  0  0  0  0  0  0  0  0  0  0
  -13.4070  -18.9257    7.6804 C   0  0  0  0  0  0  0  0  0  0  0  0
  -15.4700  -15.6543    7.3643 C   0  0  0  0  0  0  0  0  0  0  0  0
  -16.6310  -16.0618    7.8934 C   0  0  0  0  0  0  0  0  0  0  0  0
  -18.1802  -17.7114    9.0893 C   0  0  0  0  0  0  0  0  0  0  0  0
  -13.4186  -19.5367    6.3215 C   0  0  0  0  0  0  0  0  0  0  0  0
  -12.0351  -18.1521    8.0208 C   0  0  0  0  0  0  0  0  0  0  0  0
  -18.2644  -17.1599   10.5440 C   0  0  0  0  0  0  0  0  0  0  0  0
  -19.2691  -17.4271    8.3060 C   0  0  0  0  0  0  0  0  0  0  0  0
  1  2  1  0  0  0  0
  2  3  1  0  0  0  0
  2  4  1  0  0  0  0
  3  5  1  0  0  0  0
  3  6  1  0  0  0  0
  4  8  1  0  0  0  0
  4  9  1  0  0  0  0
  5  7  1  0  0  0  0
  6 10  1  0  0  0  0
  6 11  1  0  0  0  0
  7  8  1  0  0  0  0
  9 12  1  0  0  0  0
  9 13  1  0  0  0  0
M  END
>  <Score>
0.217762

>  <Energy>
-5.228864

>  <Confidence>
0.782238

>  <Binding_Affinity>
-3.000000

>  <IC50_nM>
6320605.5

$$$$
