ml_pose_2
  PandaDock generated structure

 13 13  0  0  0  0  0  0  0  0999 V2000
  -15.3437  -15.7437    8.2285 O   0  0  0  0  0  0  0  0  0  0  0  0
  -15.6260  -17.1661    8.1831 C   0  0  0  0  0  0  0  0  0  0  0  0
  -16.8354  -17.5284    8.0695 C   0  0  0  0  0  0  0  0  0  0  0  0
  -14.6316  -18.0289    8.3384 C   0  0  0  0  0  0  0  0  0  0  0  0
  -17.1418  -18.9069    8.1230 C   0  0  0  0  0  0  0  0  0  0  0  0
  -17.9916  -16.6144    8.0147 C   0  0  0  0  0  0  0  0  0  0  0  0
  -16.0860  -19.8082    8.1486 C   0  0  0  0  0  0  0  0  0  0  0  0
  -14.8608  -19.4159    8.3160 C   0  0  0  0  0  0  0  0  0  0  0  0
  -13.0954  -17.5171    8.3540 C   0  0  0  0  0  0  0  0  0  0  0  0
  -18.6134  -16.4564    6.5807 C   0  0  0  0  0  0  0  0  0  0  0  0
  -19.1615  -17.0134    8.8674 C   0  0  0  0  0  0  0  0  0  0  0  0
  -12.5262  -17.6876    9.8068 C   0  0  0  0  0  0  0  0  0  0  0  0
  -12.1866  -18.2130    7.3095 C   0  0  0  0  0  0  0  0  0  0  0  0
  1  2  1  0  0  0  0
  2  3  1  0  0  0  0
  2  4  1  0  0  0  0
  3  5  1  0  0  0  0
  3  6  1  0  0  0  0
  4  8  1  0  0  0  0
  4  9  1  0  0  0  0
  5  7  1  0  0  0  0
  6 10  1  0  0  0  0
  6 11  1  0  0  0  0
  7  8  1  0  0  0  0
  9 12  1  0  0  0  0
  9 13  1  0  0  0  0
M  END
>  <Score>
0.130098

>  <Energy>
-6.350283

>  <Confidence>
0.869902

>  <Binding_Affinity>
-8.638903

>  <IC50_nM>
464.5

$$$$
