ml_pose_25
  PandaDock generated structure

 13 13  0  0  0  0  0  0  0  0999 V2000
  -17.2143  -16.5078    8.3439 O   0  0  0  0  0  0  0  0  0  0  0  0
  -16.1560  -17.3054    8.2468 C   0  0  0  0  0  0  0  0  0  0  0  0
  -16.2571  -18.7272    8.7160 C   0  0  0  0  0  0  0  0  0  0  0  0
  -14.9970  -16.7846    7.6532 C   0  0  0  0  0  0  0  0  0  0  0  0
  -15.1157  -19.5260    8.5336 C   0  0  0  0  0  0  0  0  0  0  0  0
  -17.5274  -19.1326    9.3136 C   0  0  0  0  0  0  0  0  0  0  0  0
  -13.9896  -19.0488    8.0339 C   0  0  0  0  0  0  0  0  0  0  0  0
  -13.9412  -17.7511    7.6726 C   0  0  0  0  0  0  0  0  0  0  0  0
  -14.9243  -15.4178    7.1668 C   0  0  0  0  0  0  0  0  0  0  0  0
  -18.2628  -20.0036    8.3284 C   0  0  0  0  0  0  0  0  0  0  0  0
  -17.1573  -19.9605   10.5943 C   0  0  0  0  0  0  0  0  0  0  0  0
  -14.1188  -14.6094    8.0412 C   0  0  0  0  0  0  0  0  0  0  0  0
  -14.4386  -15.3253    5.6957 C   0  0  0  0  0  0  0  0  0  0  0  0
  1  2  1  0  0  0  0
  2  3  1  0  0  0  0
  2  4  1  0  0  0  0
  3  5  1  0  0  0  0
  3  6  1  0  0  0  0
  4  8  1  0  0  0  0
  4  9  1  0  0  0  0
  5  7  1  0  0  0  0
  6 10  1  0  0  0  0
  6 11  1  0  0  0  0
  7  8  1  0  0  0  0
  9 12  1  0  0  0  0
  9 13  1  0  0  0  0
M  END
>  <Score>
0.153179

>  <Energy>
-6.289997

>  <Confidence>
0.846821

>  <Binding_Affinity>
-5.995626

>  <IC50_nM>
40246.1

$$$$
