ml_pose_10
  PandaDock generated structure

 13 13  0  0  0  0  0  0  0  0999 V2000
  -17.0928  -19.0404    7.4613 O   0  0  0  0  0  0  0  0  0  0  0  0
  -16.1211  -18.0667    8.0318 C   0  0  0  0  0  0  0  0  0  0  0  0
  -15.2534  -17.4540    7.0565 C   0  0  0  0  0  0  0  0  0  0  0  0
  -16.0086  -17.8851    9.2184 C   0  0  0  0  0  0  0  0  0  0  0  0
  -14.2297  -16.6846    7.5380 C   0  0  0  0  0  0  0  0  0  0  0  0
  -15.2544  -17.8907    5.5796 C   0  0  0  0  0  0  0  0  0  0  0  0
  -14.2805  -16.2586    8.8765 C   0  0  0  0  0  0  0  0  0  0  0  0
  -15.1228  -16.8914    9.8466 C   0  0  0  0  0  0  0  0  0  0  0  0
  -17.0953  -18.3336   10.2527 C   0  0  0  0  0  0  0  0  0  0  0  0
  -15.9181  -16.7724    4.9291 C   0  0  0  0  0  0  0  0  0  0  0  0
  -13.7617  -18.0997    5.1883 C   0  0  0  0  0  0  0  0  0  0  0  0
  -16.3285  -19.3708   11.1255 C   0  0  0  0  0  0  0  0  0  0  0  0
  -17.6332  -17.3520   11.2357 C   0  0  0  0  0  0  0  0  0  0  0  0
  1  2  1  0  0  0  0
  2  3  1  0  0  0  0
  2  4  1  0  0  0  0
  3  5  1  0  0  0  0
  3  6  1  0  0  0  0
  4  8  1  0  0  0  0
  4  9  1  0  0  0  0
  5  7  1  0  0  0  0
  6 10  1  0  0  0  0
  6 11  1  0  0  0  0
  7  8  1  0  0  0  0
  9 12  1  0  0  0  0
  9 13  1  0  0  0  0
M  END
>  <Score>
0.111264

>  <Energy>
-8.485458

>  <Confidence>
0.888736

>  <Binding_Affinity>
-11.213039

>  <IC50_nM>
6.0

$$$$
