pose_799
  PandaDock generated structure

 13 10  0  0  0  0  0  0  0  0999 V2000
  -19.5501  -33.9649   -0.6418 O   0  0  0  0  0  0  0  0  0  0  0  0
  -19.2004  -35.2745    0.5710 C   0  0  0  0  0  0  0  0  0  0  0  0
  -19.6159  -35.3002    1.5972 C   0  0  0  0  0  0  0  0  0  0  0  0
  -17.8383  -36.2396   -0.0737 C   0  0  0  0  0  0  0  0  0  0  0  0
  -19.2914  -36.8352    2.4098 C   0  0  0  0  0  0  0  0  0  0  0  0
  -21.0627  -34.9873    2.0839 C   0  0  0  0  0  0  0  0  0  0  0  0
  -18.4433  -37.5457    2.2012 C   0  0  0  0  0  0  0  0  0  0  0  0
  -17.2690  -37.1981    0.4916 C   0  0  0  0  0  0  0  0  0  0  0  0
  -16.5170  -35.5501   -0.9221 C   0  0  0  0  0  0  0  0  0  0  0  0
  -21.9049  -35.4188    1.5076 C   0  0  0  0  0  0  0  0  0  0  0  0
  -20.6157  -34.2798    3.4950 C   0  0  0  0  0  0  0  0  0  0  0  0
  -15.8865  -34.7696   -1.0620 C   0  0  0  0  0  0  0  0  0  0  0  0
  -17.0153  -36.7362   -2.6799 C   0  0  0  0  0  0  0  0  0  0  0  0
  2  3  1  0  0  0  0
  2  4  1  0  0  0  0
  3  5  1  0  0  0  0
  3  6  1  0  0  0  0
  4  8  1  0  0  0  0
  4  9  1  0  0  0  0
  5  7  1  0  0  0  0
  6 10  1  0  0  0  0
  6 11  1  0  0  0  0
  9 12  1  0  0  0  0
M  END
>  <Score>
-11.246168

>  <Energy>
-11.733003

>  <Confidence>
0.000000

>  <Binding_Affinity>
-16.000000

>  <IC50_nM>
0.0

$$$$
pose_240
  PandaDock generated structure

 13 12  0  0  0  0  0  0  0  0999 V2000
  -15.6285  -28.8482   25.2259 O   0  0  0  0  0  0  0  0  0  0  0  0
  -16.0400  -27.9888   24.7171 C   0  0  0  0  0  0  0  0  0  0  0  0
  -16.3006  -28.7385   23.4972 C   0  0  0  0  0  0  0  0  0  0  0  0
  -16.5428  -27.0767   25.0551 C   0  0  0  0  0  0  0  0  0  0  0  0
  -17.3717  -27.8687   22.5666 C   0  0  0  0  0  0  0  0  0  0  0  0
  -15.9849  -29.5791   22.7236 C   0  0  0  0  0  0  0  0  0  0  0  0
  -17.8381  -26.2473   23.0755 C   0  0  0  0  0  0  0  0  0  0  0  0
  -17.4138  -26.3107   24.3938 C   0  0  0  0  0  0  0  0  0  0  0  0
  -16.3978  -26.5896   26.4253 C   0  0  0  0  0  0  0  0  0  0  0  0
  -17.2809  -30.6943   22.6242 C   0  0  0  0  0  0  0  0  0  0  0  0
  -15.3945  -29.6981   21.4012 C   0  0  0  0  0  0  0  0  0  0  0  0
  -15.3165  -25.1817   26.8278 C   0  0  0  0  0  0  0  0  0  0  0  0
  -17.8445  -25.7618   27.0489 C   0  0  0  0  0  0  0  0  0  0  0  0
  1  2  1  0  0  0  0
  2  3  1  0  0  0  0
  2  4  1  0  0  0  0
  3  5  1  0  0  0  0
  3  6  1  0  0  0  0
  4  8  1  0  0  0  0
  4  9  1  0  0  0  0
  5  7  1  0  0  0  0
  6 10  1  0  0  0  0
  6 11  1  0  0  0  0
  7  8  1  0  0  0  0
  9 13  1  0  0  0  0
M  END
>  <Score>
-10.769652

>  <Energy>
-11.428622

>  <Confidence>
0.000000

>  <Binding_Affinity>
-16.000000

>  <IC50_nM>
0.0

$$$$
pose_792
  PandaDock generated structure

 13 13  0  0  0  0  0  0  0  0999 V2000
  -12.2717  -33.4309   27.9066 O   0  0  0  0  0  0  0  0  0  0  0  0
  -13.3141  -33.1976   26.5076 C   0  0  0  0  0  0  0  0  0  0  0  0
  -14.2788  -32.8640   26.8203 C   0  0  0  0  0  0  0  0  0  0  0  0
  -13.0791  -33.3305   25.5427 C   0  0  0  0  0  0  0  0  0  0  0  0
  -15.2006  -32.7798   25.8862 C   0  0  0  0  0  0  0  0  0  0  0  0
  -14.6176  -32.7668   28.4559 C   0  0  0  0  0  0  0  0  0  0  0  0
  -14.8599  -33.1437   24.3770 C   0  0  0  0  0  0  0  0  0  0  0  0
  -13.7132  -33.2129   24.2699 C   0  0  0  0  0  0  0  0  0  0  0  0
  -11.4041  -33.4516   25.1278 C   0  0  0  0  0  0  0  0  0  0  0  0
  -14.8579  -31.2638   28.7795 C   0  0  0  0  0  0  0  0  0  0  0  0
  -16.1497  -33.2670   28.3333 C   0  0  0  0  0  0  0  0  0  0  0  0
  -11.1902  -34.7505   24.1990 C   0  0  0  0  0  0  0  0  0  0  0  0
  -10.6933  -32.4975   24.1341 C   0  0  0  0  0  0  0  0  0  0  0  0
  1  2  1  0  0  0  0
  2  3  1  0  0  0  0
  2  4  1  0  0  0  0
  3  5  1  0  0  0  0
  3  6  1  0  0  0  0
  4  8  1  0  0  0  0
  4  9  1  0  0  0  0
  5  7  1  0  0  0  0
  6 10  1  0  0  0  0
  6 11  1  0  0  0  0
  7  8  1  0  0  0  0
  9 12  1  0  0  0  0
  9 13  1  0  0  0  0
M  END
>  <Score>
-10.668825

>  <Energy>
-11.442656

>  <Confidence>
0.000000

>  <Binding_Affinity>
-16.000000

>  <IC50_nM>
0.0

$$$$
pose_538
  PandaDock generated structure

 13 12  0  0  0  0  0  0  0  0999 V2000
  -21.6934  -34.6019   -1.5891 O   0  0  0  0  0  0  0  0  0  0  0  0
  -20.7086  -35.5809   -2.5133 C   0  0  0  0  0  0  0  0  0  0  0  0
  -20.4653  -35.1139   -3.9644 C   0  0  0  0  0  0  0  0  0  0  0  0
  -19.8271  -36.6451   -2.5658 C   0  0  0  0  0  0  0  0  0  0  0  0
  -19.5599  -35.5880   -5.0079 C   0  0  0  0  0  0  0  0  0  0  0  0
  -20.8009  -33.8027   -4.6359 C   0  0  0  0  0  0  0  0  0  0  0  0
  -18.8867  -36.7397   -4.4619 C   0  0  0  0  0  0  0  0  0  0  0  0
  -18.8261  -37.1450   -3.2954 C   0  0  0  0  0  0  0  0  0  0  0  0
  -20.0812  -36.9209   -1.0117 C   0  0  0  0  0  0  0  0  0  0  0  0
  -20.0736  -32.5597   -4.3538 C   0  0  0  0  0  0  0  0  0  0  0  0
  -21.5290  -33.6082   -6.1799 C   0  0  0  0  0  0  0  0  0  0  0  0
  -21.1540  -38.2408   -0.8439 C   0  0  0  0  0  0  0  0  0  0  0  0
  -18.4609  -37.5532    0.0057 C   0  0  0  0  0  0  0  0  0  0  0  0
  1  2  1  0  0  0  0
  2  3  1  0  0  0  0
  2  4  1  0  0  0  0
  3  5  1  0  0  0  0
  3  6  1  0  0  0  0
  4  8  1  0  0  0  0
  4  9  1  0  0  0  0
  5  7  1  0  0  0  0
  6 10  1  0  0  0  0
  6 11  1  0  0  0  0
  7  8  1  0  0  0  0
  9 12  1  0  0  0  0
M  END
>  <Score>
-10.249257

>  <Energy>
-10.806422

>  <Confidence>
0.000000

>  <Binding_Affinity>
-16.000000

>  <IC50_nM>
0.0

$$$$
pose_730
  PandaDock generated structure

 13 11  0  0  0  0  0  0  0  0999 V2000
  -22.9169  -34.2403   25.9644 O   0  0  0  0  0  0  0  0  0  0  0  0
  -23.8893  -35.0926   26.2637 C   0  0  0  0  0  0  0  0  0  0  0  0
  -23.8278  -36.6915   26.9587 C   0  0  0  0  0  0  0  0  0  0  0  0
  -24.9841  -35.0143   25.5765 C   0  0  0  0  0  0  0  0  0  0  0  0
  -24.7401  -37.2697   27.0581 C   0  0  0  0  0  0  0  0  0  0  0  0
  -22.0793  -36.2188   27.7241 C   0  0  0  0  0  0  0  0  0  0  0  0
  -25.9479  -37.1769   26.4407 C   0  0  0  0  0  0  0  0  0  0  0  0
  -26.0731  -36.5427   25.4541 C   0  0  0  0  0  0  0  0  0  0  0  0
  -25.0387  -34.0256   24.1718 C   0  0  0  0  0  0  0  0  0  0  0  0
  -22.2827  -35.9254   29.3278 C   0  0  0  0  0  0  0  0  0  0  0  0
  -21.9737  -37.8030   27.9842 C   0  0  0  0  0  0  0  0  0  0  0  0
  -24.9468  -34.6518   22.6574 C   0  0  0  0  0  0  0  0  0  0  0  0
  -26.4025  -33.4474   24.7584 C   0  0  0  0  0  0  0  0  0  0  0  0
  1  2  1  0  0  0  0
  2  3  1  0  0  0  0
  2  4  1  0  0  0  0
  3  5  1  0  0  0  0
  4  9  1  0  0  0  0
  5  7  1  0  0  0  0
  6 10  1  0  0  0  0
  6 11  1  0  0  0  0
  7  8  1  0  0  0  0
  9 12  1  0  0  0  0
  9 13  1  0  0  0  0
M  END
>  <Score>
-10.238084

>  <Energy>
-10.713648

>  <Confidence>
0.000000

>  <Binding_Affinity>
-16.000000

>  <IC50_nM>
0.0

$$$$
pose_509
  PandaDock generated structure

 13 10  0  0  0  0  0  0  0  0999 V2000
   -9.6580  -26.5852    6.9861 O   0  0  0  0  0  0  0  0  0  0  0  0
  -11.0104  -26.9169    6.7262 C   0  0  0  0  0  0  0  0  0  0  0  0
  -12.0469  -26.0105    6.9049 C   0  0  0  0  0  0  0  0  0  0  0  0
  -11.4402  -28.0129    6.0759 C   0  0  0  0  0  0  0  0  0  0  0  0
  -13.4926  -26.3659    6.6788 C   0  0  0  0  0  0  0  0  0  0  0  0
  -11.5559  -24.2814    7.3154 C   0  0  0  0  0  0  0  0  0  0  0  0
  -13.6733  -27.7584    5.8928 C   0  0  0  0  0  0  0  0  0  0  0  0
  -12.7131  -28.6054    5.7537 C   0  0  0  0  0  0  0  0  0  0  0  0
  -10.4553  -29.1171    5.2730 C   0  0  0  0  0  0  0  0  0  0  0  0
  -11.9209  -23.8236    6.2960 C   0  0  0  0  0  0  0  0  0  0  0  0
  -12.7907  -24.7935    8.5680 C   0  0  0  0  0  0  0  0  0  0  0  0
  -10.3853  -30.5153    6.4050 C   0  0  0  0  0  0  0  0  0  0  0  0
  -10.1797  -29.9405    4.2778 C   0  0  0  0  0  0  0  0  0  0  0  0
  1  2  1  0  0  0  0
  2  3  1  0  0  0  0
  2  4  1  0  0  0  0
  3  5  1  0  0  0  0
  4  8  1  0  0  0  0
  4  9  1  0  0  0  0
  5  7  1  0  0  0  0
  6 10  1  0  0  0  0
  7  8  1  0  0  0  0
  9 13  1  0  0  0  0
M  END
>  <Score>
-10.227343

>  <Energy>
-10.787957

>  <Confidence>
0.000000

>  <Binding_Affinity>
-16.000000

>  <IC50_nM>
0.0

$$$$
pose_898
  PandaDock generated structure

 13 12  0  0  0  0  0  0  0  0999 V2000
  -35.2344  -34.6019    2.7689 O   0  0  0  0  0  0  0  0  0  0  0  0
  -34.2497  -35.5809    1.8447 C   0  0  0  0  0  0  0  0  0  0  0  0
  -34.0063  -35.1139    0.3936 C   0  0  0  0  0  0  0  0  0  0  0  0
  -33.3681  -36.6451    1.7922 C   0  0  0  0  0  0  0  0  0  0  0  0
  -33.1010  -35.5880   -0.6499 C   0  0  0  0  0  0  0  0  0  0  0  0
  -34.3419  -33.8027   -0.2779 C   0  0  0  0  0  0  0  0  0  0  0  0
  -32.4277  -36.7397   -0.1039 C   0  0  0  0  0  0  0  0  0  0  0  0
  -32.3672  -37.1450    1.0626 C   0  0  0  0  0  0  0  0  0  0  0  0
  -33.6223  -36.9209    3.3463 C   0  0  0  0  0  0  0  0  0  0  0  0
  -33.6146  -32.5597    0.0042 C   0  0  0  0  0  0  0  0  0  0  0  0
  -35.0700  -33.6082   -1.8219 C   0  0  0  0  0  0  0  0  0  0  0  0
  -34.6951  -38.2408    3.5141 C   0  0  0  0  0  0  0  0  0  0  0  0
  -32.0019  -37.5532    4.3637 C   0  0  0  0  0  0  0  0  0  0  0  0
  1  2  1  0  0  0  0
  2  3  1  0  0  0  0
  2  4  1  0  0  0  0
  3  5  1  0  0  0  0
  3  6  1  0  0  0  0
  4  8  1  0  0  0  0
  4  9  1  0  0  0  0
  5  7  1  0  0  0  0
  6 10  1  0  0  0  0
  6 11  1  0  0  0  0
  7  8  1  0  0  0  0
  9 12  1  0  0  0  0
M  END
>  <Score>
-10.190366

>  <Energy>
-10.747532

>  <Confidence>
0.000000

>  <Binding_Affinity>
-16.000000

>  <IC50_nM>
0.0

$$$$
pose_862
  PandaDock generated structure

 13 12  0  0  0  0  0  0  0  0999 V2000
  -14.0456  -21.9741    0.1709 O   0  0  0  0  0  0  0  0  0  0  0  0
  -15.2302  -22.4170   -1.0349 C   0  0  0  0  0  0  0  0  0  0  0  0
  -15.7133  -21.3352   -2.1134 C   0  0  0  0  0  0  0  0  0  0  0  0
  -15.2449  -23.6427   -1.3528 C   0  0  0  0  0  0  0  0  0  0  0  0
  -16.4616  -22.2317   -3.3923 C   0  0  0  0  0  0  0  0  0  0  0  0
  -15.2882  -20.0681   -2.1286 C   0  0  0  0  0  0  0  0  0  0  0  0
  -16.2728  -23.2051   -2.9673 C   0  0  0  0  0  0  0  0  0  0  0  0
  -16.4739  -24.2976   -2.7356 C   0  0  0  0  0  0  0  0  0  0  0  0
  -15.0664  -24.6697   -0.3294 C   0  0  0  0  0  0  0  0  0  0  0  0
  -14.0532  -19.3548   -2.9069 C   0  0  0  0  0  0  0  0  0  0  0  0
  -16.6265  -19.0636   -2.4046 C   0  0  0  0  0  0  0  0  0  0  0  0
  -16.1382  -25.1330    0.6088 C   0  0  0  0  0  0  0  0  0  0  0  0
  -13.8970  -25.6704   -1.0139 C   0  0  0  0  0  0  0  0  0  0  0  0
  1  2  1  0  0  0  0
  2  3  1  0  0  0  0
  2  4  1  0  0  0  0
  3  5  1  0  0  0  0
  3  6  1  0  0  0  0
  4  9  1  0  0  0  0
  5  7  1  0  0  0  0
  6 10  1  0  0  0  0
  6 11  1  0  0  0  0
  7  8  1  0  0  0  0
  9 12  1  0  0  0  0
  9 13  1  0  0  0  0
M  END
>  <Score>
-10.158249

>  <Energy>
-10.588027

>  <Confidence>
0.000000

>  <Binding_Affinity>
-16.000000

>  <IC50_nM>
0.0

$$$$
pose_130
  PandaDock generated structure

 13  9  0  0  0  0  0  0  0  0999 V2000
  -13.5131  -34.1191   27.4141 O   0  0  0  0  0  0  0  0  0  0  0  0
  -13.7448  -35.7187   26.5816 C   0  0  0  0  0  0  0  0  0  0  0  0
  -14.7539  -35.8357   26.6524 C   0  0  0  0  0  0  0  0  0  0  0  0
  -12.5097  -35.7954   25.7912 C   0  0  0  0  0  0  0  0  0  0  0  0
  -14.8765  -37.3341   25.6559 C   0  0  0  0  0  0  0  0  0  0  0  0
  -15.8205  -35.8821   27.1262 C   0  0  0  0  0  0  0  0  0  0  0  0
  -13.5224  -37.4286   24.9321 C   0  0  0  0  0  0  0  0  0  0  0  0
  -12.0544  -36.5919   25.0783 C   0  0  0  0  0  0  0  0  0  0  0  0
  -11.4002  -34.2051   25.7235 C   0  0  0  0  0  0  0  0  0  0  0  0
  -16.2246  -35.1631   26.3531 C   0  0  0  0  0  0  0  0  0  0  0  0
  -16.5773  -37.3591   27.8246 C   0  0  0  0  0  0  0  0  0  0  0  0
   -9.9943  -34.7725   26.8354 C   0  0  0  0  0  0  0  0  0  0  0  0
  -10.7620  -33.8945   24.3718 C   0  0  0  0  0  0  0  0  0  0  0  0
  2  3  1  0  0  0  0
  2  4  1  0  0  0  0
  3  6  1  0  0  0  0
  3 10  1  0  0  0  0
  4  8  1  0  0  0  0
  5  7  1  0  0  0  0
  6 10  1  0  0  0  0
  7  8  1  0  0  0  0
  9 13  1  0  0  0  0
M  END
>  <Score>
-10.141242

>  <Energy>
-10.718702

>  <Confidence>
0.000000

>  <Binding_Affinity>
-16.000000

>  <IC50_nM>
0.0

$$$$
pose_545
  PandaDock generated structure

 13 13  0  0  0  0  0  0  0  0999 V2000
  -31.8674  -36.0332   27.3915 O   0  0  0  0  0  0  0  0  0  0  0  0
  -32.8994  -35.9642   26.8022 C   0  0  0  0  0  0  0  0  0  0  0  0
  -34.3312  -35.5790   26.9866 C   0  0  0  0  0  0  0  0  0  0  0  0
  -33.4182  -35.8159   25.3716 C   0  0  0  0  0  0  0  0  0  0  0  0
  -35.4830  -35.2335   26.3704 C   0  0  0  0  0  0  0  0  0  0  0  0
  -34.7193  -35.5103   28.5802 C   0  0  0  0  0  0  0  0  0  0  0  0
  -35.3697  -35.1637   24.9522 C   0  0  0  0  0  0  0  0  0  0  0  0
  -33.9217  -35.5688   24.2089 C   0  0  0  0  0  0  0  0  0  0  0  0
  -32.0161  -36.3143   24.4242 C   0  0  0  0  0  0  0  0  0  0  0  0
  -34.6216  -34.1352   29.1736 C   0  0  0  0  0  0  0  0  0  0  0  0
  -35.7524  -36.3187   29.0536 C   0  0  0  0  0  0  0  0  0  0  0  0
  -32.0939  -37.5126   23.6321 C   0  0  0  0  0  0  0  0  0  0  0  0
  -31.6060  -34.9506   23.3929 C   0  0  0  0  0  0  0  0  0  0  0  0
  1  2  1  0  0  0  0
  2  3  1  0  0  0  0
  2  4  1  0  0  0  0
  3  5  1  0  0  0  0
  3  6  1  0  0  0  0
  4  8  1  0  0  0  0
  4  9  1  0  0  0  0
  5  7  1  0  0  0  0
  6 10  1  0  0  0  0
  6 11  1  0  0  0  0
  7  8  1  0  0  0  0
  9 12  1  0  0  0  0
  9 13  1  0  0  0  0
M  END
>  <Score>
-10.129969

>  <Energy>
-10.649229

>  <Confidence>
0.000000

>  <Binding_Affinity>
-16.000000

>  <IC50_nM>
0.0

$$$$
