pose_898
  PandaDock generated structure

 13 12  0  0  0  0  0  0  0  0999 V2000
  -35.2344  -34.6019    2.7689 O   0  0  0  0  0  0  0  0  0  0  0  0
  -34.2497  -35.5809    1.8447 C   0  0  0  0  0  0  0  0  0  0  0  0
  -34.0063  -35.1139    0.3936 C   0  0  0  0  0  0  0  0  0  0  0  0
  -33.3681  -36.6451    1.7922 C   0  0  0  0  0  0  0  0  0  0  0  0
  -33.1010  -35.5880   -0.6499 C   0  0  0  0  0  0  0  0  0  0  0  0
  -34.3419  -33.8027   -0.2779 C   0  0  0  0  0  0  0  0  0  0  0  0
  -32.4277  -36.7397   -0.1039 C   0  0  0  0  0  0  0  0  0  0  0  0
  -32.3672  -37.1450    1.0626 C   0  0  0  0  0  0  0  0  0  0  0  0
  -33.6223  -36.9209    3.3463 C   0  0  0  0  0  0  0  0  0  0  0  0
  -33.6146  -32.5597    0.0042 C   0  0  0  0  0  0  0  0  0  0  0  0
  -35.0700  -33.6082   -1.8219 C   0  0  0  0  0  0  0  0  0  0  0  0
  -34.6951  -38.2408    3.5141 C   0  0  0  0  0  0  0  0  0  0  0  0
  -32.0019  -37.5532    4.3637 C   0  0  0  0  0  0  0  0  0  0  0  0
  1  2  1  0  0  0  0
  2  3  1  0  0  0  0
  2  4  1  0  0  0  0
  3  5  1  0  0  0  0
  3  6  1  0  0  0  0
  4  8  1  0  0  0  0
  4  9  1  0  0  0  0
  5  7  1  0  0  0  0
  6 10  1  0  0  0  0
  6 11  1  0  0  0  0
  7  8  1  0  0  0  0
  9 12  1  0  0  0  0
M  END
>  <Score>
-10.190366

>  <Energy>
-10.747532

>  <Confidence>
0.000000

>  <Binding_Affinity>
-16.000000

>  <IC50_nM>
0.0

$$$$
