pose_538
  PandaDock generated structure

 13 12  0  0  0  0  0  0  0  0999 V2000
  -21.6934  -34.6019   -1.5891 O   0  0  0  0  0  0  0  0  0  0  0  0
  -20.7086  -35.5809   -2.5133 C   0  0  0  0  0  0  0  0  0  0  0  0
  -20.4653  -35.1139   -3.9644 C   0  0  0  0  0  0  0  0  0  0  0  0
  -19.8271  -36.6451   -2.5658 C   0  0  0  0  0  0  0  0  0  0  0  0
  -19.5599  -35.5880   -5.0079 C   0  0  0  0  0  0  0  0  0  0  0  0
  -20.8009  -33.8027   -4.6359 C   0  0  0  0  0  0  0  0  0  0  0  0
  -18.8867  -36.7397   -4.4619 C   0  0  0  0  0  0  0  0  0  0  0  0
  -18.8261  -37.1450   -3.2954 C   0  0  0  0  0  0  0  0  0  0  0  0
  -20.0812  -36.9209   -1.0117 C   0  0  0  0  0  0  0  0  0  0  0  0
  -20.0736  -32.5597   -4.3538 C   0  0  0  0  0  0  0  0  0  0  0  0
  -21.5290  -33.6082   -6.1799 C   0  0  0  0  0  0  0  0  0  0  0  0
  -21.1540  -38.2408   -0.8439 C   0  0  0  0  0  0  0  0  0  0  0  0
  -18.4609  -37.5532    0.0057 C   0  0  0  0  0  0  0  0  0  0  0  0
  1  2  1  0  0  0  0
  2  3  1  0  0  0  0
  2  4  1  0  0  0  0
  3  5  1  0  0  0  0
  3  6  1  0  0  0  0
  4  8  1  0  0  0  0
  4  9  1  0  0  0  0
  5  7  1  0  0  0  0
  6 10  1  0  0  0  0
  6 11  1  0  0  0  0
  7  8  1  0  0  0  0
  9 12  1  0  0  0  0
M  END
>  <Score>
-10.249257

>  <Energy>
-10.806422

>  <Confidence>
0.000000

>  <Binding_Affinity>
-16.000000

>  <IC50_nM>
0.0

$$$$
