pose_799
  PandaDock generated structure

 13 10  0  0  0  0  0  0  0  0999 V2000
  -19.5501  -33.9649   -0.6418 O   0  0  0  0  0  0  0  0  0  0  0  0
  -19.2004  -35.2745    0.5710 C   0  0  0  0  0  0  0  0  0  0  0  0
  -19.6159  -35.3002    1.5972 C   0  0  0  0  0  0  0  0  0  0  0  0
  -17.8383  -36.2396   -0.0737 C   0  0  0  0  0  0  0  0  0  0  0  0
  -19.2914  -36.8352    2.4098 C   0  0  0  0  0  0  0  0  0  0  0  0
  -21.0627  -34.9873    2.0839 C   0  0  0  0  0  0  0  0  0  0  0  0
  -18.4433  -37.5457    2.2012 C   0  0  0  0  0  0  0  0  0  0  0  0
  -17.2690  -37.1981    0.4916 C   0  0  0  0  0  0  0  0  0  0  0  0
  -16.5170  -35.5501   -0.9221 C   0  0  0  0  0  0  0  0  0  0  0  0
  -21.9049  -35.4188    1.5076 C   0  0  0  0  0  0  0  0  0  0  0  0
  -20.6157  -34.2798    3.4950 C   0  0  0  0  0  0  0  0  0  0  0  0
  -15.8865  -34.7696   -1.0620 C   0  0  0  0  0  0  0  0  0  0  0  0
  -17.0153  -36.7362   -2.6799 C   0  0  0  0  0  0  0  0  0  0  0  0
  2  3  1  0  0  0  0
  2  4  1  0  0  0  0
  3  5  1  0  0  0  0
  3  6  1  0  0  0  0
  4  8  1  0  0  0  0
  4  9  1  0  0  0  0
  5  7  1  0  0  0  0
  6 10  1  0  0  0  0
  6 11  1  0  0  0  0
  9 12  1  0  0  0  0
M  END
>  <Score>
-11.246168

>  <Energy>
-11.733003

>  <Confidence>
0.000000

>  <Binding_Affinity>
-16.000000

>  <IC50_nM>
0.0

$$$$
