pose_509
  PandaDock generated structure

 13 10  0  0  0  0  0  0  0  0999 V2000
   -9.6580  -26.5852    6.9861 O   0  0  0  0  0  0  0  0  0  0  0  0
  -11.0104  -26.9169    6.7262 C   0  0  0  0  0  0  0  0  0  0  0  0
  -12.0469  -26.0105    6.9049 C   0  0  0  0  0  0  0  0  0  0  0  0
  -11.4402  -28.0129    6.0759 C   0  0  0  0  0  0  0  0  0  0  0  0
  -13.4926  -26.3659    6.6788 C   0  0  0  0  0  0  0  0  0  0  0  0
  -11.5559  -24.2814    7.3154 C   0  0  0  0  0  0  0  0  0  0  0  0
  -13.6733  -27.7584    5.8928 C   0  0  0  0  0  0  0  0  0  0  0  0
  -12.7131  -28.6054    5.7537 C   0  0  0  0  0  0  0  0  0  0  0  0
  -10.4553  -29.1171    5.2730 C   0  0  0  0  0  0  0  0  0  0  0  0
  -11.9209  -23.8236    6.2960 C   0  0  0  0  0  0  0  0  0  0  0  0
  -12.7907  -24.7935    8.5680 C   0  0  0  0  0  0  0  0  0  0  0  0
  -10.3853  -30.5153    6.4050 C   0  0  0  0  0  0  0  0  0  0  0  0
  -10.1797  -29.9405    4.2778 C   0  0  0  0  0  0  0  0  0  0  0  0
  1  2  1  0  0  0  0
  2  3  1  0  0  0  0
  2  4  1  0  0  0  0
  3  5  1  0  0  0  0
  4  8  1  0  0  0  0
  4  9  1  0  0  0  0
  5  7  1  0  0  0  0
  6 10  1  0  0  0  0
  7  8  1  0  0  0  0
  9 13  1  0  0  0  0
M  END
>  <Score>
-10.227343

>  <Energy>
-10.787957

>  <Confidence>
0.000000

>  <Binding_Affinity>
-16.000000

>  <IC50_nM>
0.0

$$$$
