pose_862
  PandaDock generated structure

 13 12  0  0  0  0  0  0  0  0999 V2000
  -14.0456  -21.9741    0.1709 O   0  0  0  0  0  0  0  0  0  0  0  0
  -15.2302  -22.4170   -1.0349 C   0  0  0  0  0  0  0  0  0  0  0  0
  -15.7133  -21.3352   -2.1134 C   0  0  0  0  0  0  0  0  0  0  0  0
  -15.2449  -23.6427   -1.3528 C   0  0  0  0  0  0  0  0  0  0  0  0
  -16.4616  -22.2317   -3.3923 C   0  0  0  0  0  0  0  0  0  0  0  0
  -15.2882  -20.0681   -2.1286 C   0  0  0  0  0  0  0  0  0  0  0  0
  -16.2728  -23.2051   -2.9673 C   0  0  0  0  0  0  0  0  0  0  0  0
  -16.4739  -24.2976   -2.7356 C   0  0  0  0  0  0  0  0  0  0  0  0
  -15.0664  -24.6697   -0.3294 C   0  0  0  0  0  0  0  0  0  0  0  0
  -14.0532  -19.3548   -2.9069 C   0  0  0  0  0  0  0  0  0  0  0  0
  -16.6265  -19.0636   -2.4046 C   0  0  0  0  0  0  0  0  0  0  0  0
  -16.1382  -25.1330    0.6088 C   0  0  0  0  0  0  0  0  0  0  0  0
  -13.8970  -25.6704   -1.0139 C   0  0  0  0  0  0  0  0  0  0  0  0
  1  2  1  0  0  0  0
  2  3  1  0  0  0  0
  2  4  1  0  0  0  0
  3  5  1  0  0  0  0
  3  6  1  0  0  0  0
  4  9  1  0  0  0  0
  5  7  1  0  0  0  0
  6 10  1  0  0  0  0
  6 11  1  0  0  0  0
  7  8  1  0  0  0  0
  9 12  1  0  0  0  0
  9 13  1  0  0  0  0
M  END
>  <Score>
-10.158249

>  <Energy>
-10.588027

>  <Confidence>
0.000000

>  <Binding_Affinity>
-16.000000

>  <IC50_nM>
0.0

$$$$
