pose_240
  PandaDock generated structure

 13 12  0  0  0  0  0  0  0  0999 V2000
  -15.6285  -28.8482   25.2259 O   0  0  0  0  0  0  0  0  0  0  0  0
  -16.0400  -27.9888   24.7171 C   0  0  0  0  0  0  0  0  0  0  0  0
  -16.3006  -28.7385   23.4972 C   0  0  0  0  0  0  0  0  0  0  0  0
  -16.5428  -27.0767   25.0551 C   0  0  0  0  0  0  0  0  0  0  0  0
  -17.3717  -27.8687   22.5666 C   0  0  0  0  0  0  0  0  0  0  0  0
  -15.9849  -29.5791   22.7236 C   0  0  0  0  0  0  0  0  0  0  0  0
  -17.8381  -26.2473   23.0755 C   0  0  0  0  0  0  0  0  0  0  0  0
  -17.4138  -26.3107   24.3938 C   0  0  0  0  0  0  0  0  0  0  0  0
  -16.3978  -26.5896   26.4253 C   0  0  0  0  0  0  0  0  0  0  0  0
  -17.2809  -30.6943   22.6242 C   0  0  0  0  0  0  0  0  0  0  0  0
  -15.3945  -29.6981   21.4012 C   0  0  0  0  0  0  0  0  0  0  0  0
  -15.3165  -25.1817   26.8278 C   0  0  0  0  0  0  0  0  0  0  0  0
  -17.8445  -25.7618   27.0489 C   0  0  0  0  0  0  0  0  0  0  0  0
  1  2  1  0  0  0  0
  2  3  1  0  0  0  0
  2  4  1  0  0  0  0
  3  5  1  0  0  0  0
  3  6  1  0  0  0  0
  4  8  1  0  0  0  0
  4  9  1  0  0  0  0
  5  7  1  0  0  0  0
  6 10  1  0  0  0  0
  6 11  1  0  0  0  0
  7  8  1  0  0  0  0
  9 13  1  0  0  0  0
M  END
>  <Score>
-10.769652

>  <Energy>
-11.428622

>  <Confidence>
0.000000

>  <Binding_Affinity>
-16.000000

>  <IC50_nM>
0.0

$$$$
