pose_130
  PandaDock generated structure

 13  9  0  0  0  0  0  0  0  0999 V2000
  -13.5131  -34.1191   27.4141 O   0  0  0  0  0  0  0  0  0  0  0  0
  -13.7448  -35.7187   26.5816 C   0  0  0  0  0  0  0  0  0  0  0  0
  -14.7539  -35.8357   26.6524 C   0  0  0  0  0  0  0  0  0  0  0  0
  -12.5097  -35.7954   25.7912 C   0  0  0  0  0  0  0  0  0  0  0  0
  -14.8765  -37.3341   25.6559 C   0  0  0  0  0  0  0  0  0  0  0  0
  -15.8205  -35.8821   27.1262 C   0  0  0  0  0  0  0  0  0  0  0  0
  -13.5224  -37.4286   24.9321 C   0  0  0  0  0  0  0  0  0  0  0  0
  -12.0544  -36.5919   25.0783 C   0  0  0  0  0  0  0  0  0  0  0  0
  -11.4002  -34.2051   25.7235 C   0  0  0  0  0  0  0  0  0  0  0  0
  -16.2246  -35.1631   26.3531 C   0  0  0  0  0  0  0  0  0  0  0  0
  -16.5773  -37.3591   27.8246 C   0  0  0  0  0  0  0  0  0  0  0  0
   -9.9943  -34.7725   26.8354 C   0  0  0  0  0  0  0  0  0  0  0  0
  -10.7620  -33.8945   24.3718 C   0  0  0  0  0  0  0  0  0  0  0  0
  2  3  1  0  0  0  0
  2  4  1  0  0  0  0
  3  6  1  0  0  0  0
  3 10  1  0  0  0  0
  4  8  1  0  0  0  0
  5  7  1  0  0  0  0
  6 10  1  0  0  0  0
  7  8  1  0  0  0  0
  9 13  1  0  0  0  0
M  END
>  <Score>
-10.141242

>  <Energy>
-10.718702

>  <Confidence>
0.000000

>  <Binding_Affinity>
-16.000000

>  <IC50_nM>
0.0

$$$$
