pose_545
  PandaDock generated structure

 13 13  0  0  0  0  0  0  0  0999 V2000
  -31.8674  -36.0332   27.3915 O   0  0  0  0  0  0  0  0  0  0  0  0
  -32.8994  -35.9642   26.8022 C   0  0  0  0  0  0  0  0  0  0  0  0
  -34.3312  -35.5790   26.9866 C   0  0  0  0  0  0  0  0  0  0  0  0
  -33.4182  -35.8159   25.3716 C   0  0  0  0  0  0  0  0  0  0  0  0
  -35.4830  -35.2335   26.3704 C   0  0  0  0  0  0  0  0  0  0  0  0
  -34.7193  -35.5103   28.5802 C   0  0  0  0  0  0  0  0  0  0  0  0
  -35.3697  -35.1637   24.9522 C   0  0  0  0  0  0  0  0  0  0  0  0
  -33.9217  -35.5688   24.2089 C   0  0  0  0  0  0  0  0  0  0  0  0
  -32.0161  -36.3143   24.4242 C   0  0  0  0  0  0  0  0  0  0  0  0
  -34.6216  -34.1352   29.1736 C   0  0  0  0  0  0  0  0  0  0  0  0
  -35.7524  -36.3187   29.0536 C   0  0  0  0  0  0  0  0  0  0  0  0
  -32.0939  -37.5126   23.6321 C   0  0  0  0  0  0  0  0  0  0  0  0
  -31.6060  -34.9506   23.3929 C   0  0  0  0  0  0  0  0  0  0  0  0
  1  2  1  0  0  0  0
  2  3  1  0  0  0  0
  2  4  1  0  0  0  0
  3  5  1  0  0  0  0
  3  6  1  0  0  0  0
  4  8  1  0  0  0  0
  4  9  1  0  0  0  0
  5  7  1  0  0  0  0
  6 10  1  0  0  0  0
  6 11  1  0  0  0  0
  7  8  1  0  0  0  0
  9 12  1  0  0  0  0
  9 13  1  0  0  0  0
M  END
>  <Score>
-10.129969

>  <Energy>
-10.649229

>  <Confidence>
0.000000

>  <Binding_Affinity>
-16.000000

>  <IC50_nM>
0.0

$$$$
