ml_pose_11
  PandaDock generated structure

 13 13  0  0  0  0  0  0  0  0999 V2000
  -13.7627  -17.2659    7.7684 O   0  0  0  0  0  0  0  0  0  0  0  0
  -15.1243  -17.5461    8.1119 C   0  0  0  0  0  0  0  0  0  0  0  0
  -16.1878  -16.8035    7.5003 C   0  0  0  0  0  0  0  0  0  0  0  0
  -15.3883  -18.5682    8.8624 C   0  0  0  0  0  0  0  0  0  0  0  0
  -17.4907  -17.1213    7.7388 C   0  0  0  0  0  0  0  0  0  0  0  0
  -15.9367  -15.5902    6.6026 C   0  0  0  0  0  0  0  0  0  0  0  0
  -17.7907  -18.2107    8.6740 C   0  0  0  0  0  0  0  0  0  0  0  0
  -16.7675  -18.9988    9.1504 C   0  0  0  0  0  0  0  0  0  0  0  0
  -14.3050  -19.4334    9.5261 C   0  0  0  0  0  0  0  0  0  0  0  0
  -15.9003  -16.0394    5.0903 C   0  0  0  0  0  0  0  0  0  0  0  0
  -16.7137  -14.4588    6.9559 C   0  0  0  0  0  0  0  0  0  0  0  0
  -14.1211  -19.1722   11.0643 C   0  0  0  0  0  0  0  0  0  0  0  0
  -14.6111  -20.8916    9.2947 C   0  0  0  0  0  0  0  0  0  0  0  0
  1  2  1  0  0  0  0
  2  3  1  0  0  0  0
  2  4  1  0  0  0  0
  3  5  1  0  0  0  0
  3  6  1  0  0  0  0
  4  8  1  0  0  0  0
  4  9  1  0  0  0  0
  5  7  1  0  0  0  0
  6 10  1  0  0  0  0
  6 11  1  0  0  0  0
  7  8  1  0  0  0  0
  9 12  1  0  0  0  0
  9 13  1  0  0  0  0
M  END
>  <Score>
0.112721

>  <Energy>
-7.673323

>  <Confidence>
0.887279

>  <Binding_Affinity>
-12.245571

>  <IC50_nM>
1.1

$$$$
ml_pose_2
  PandaDock generated structure

 13 13  0  0  0  0  0  0  0  0999 V2000
  -17.6439  -17.2532    8.3063 O   0  0  0  0  0  0  0  0  0  0  0  0
  -16.3009  -17.6546    8.1988 C   0  0  0  0  0  0  0  0  0  0  0  0
  -15.6912  -18.6760    8.8646 C   0  0  0  0  0  0  0  0  0  0  0  0
  -15.3981  -16.7251    7.4419 C   0  0  0  0  0  0  0  0  0  0  0  0
  -14.4084  -18.9385    8.8721 C   0  0  0  0  0  0  0  0  0  0  0  0
  -16.7185  -19.5036    9.7196 C   0  0  0  0  0  0  0  0  0  0  0  0
  -13.5563  -18.1481    8.0672 C   0  0  0  0  0  0  0  0  0  0  0  0
  -14.1286  -16.9914    7.3872 C   0  0  0  0  0  0  0  0  0  0  0  0
  -16.0779  -15.5895    6.7687 C   0  0  0  0  0  0  0  0  0  0  0  0
  -17.0107  -20.8670    9.0292 C   0  0  0  0  0  0  0  0  0  0  0  0
  -16.0009  -19.8821   11.0538 C   0  0  0  0  0  0  0  0  0  0  0  0
  -15.6215  -14.2727    7.3319 C   0  0  0  0  0  0  0  0  0  0  0  0
  -15.5430  -15.5982    5.2988 C   0  0  0  0  0  0  0  0  0  0  0  0
  1  2  1  0  0  0  0
  2  3  1  0  0  0  0
  2  4  1  0  0  0  0
  3  5  1  0  0  0  0
  3  6  1  0  0  0  0
  4  8  1  0  0  0  0
  4  9  1  0  0  0  0
  5  7  1  0  0  0  0
  6 10  1  0  0  0  0
  6 11  1  0  0  0  0
  7  8  1  0  0  0  0
  9 12  1  0  0  0  0
  9 13  1  0  0  0  0
M  END
>  <Score>
0.125137

>  <Energy>
-6.282306

>  <Confidence>
0.874863

>  <Binding_Affinity>
-11.997255

>  <IC50_nM>
1.6

$$$$
ml_pose_23
  PandaDock generated structure

 13 13  0  0  0  0  0  0  0  0999 V2000
  -16.3280  -17.9998    9.9217 O   0  0  0  0  0  0  0  0  0  0  0  0
  -15.8839  -17.7623    8.7750 C   0  0  0  0  0  0  0  0  0  0  0  0
  -15.5797  -18.8638    7.9227 C   0  0  0  0  0  0  0  0  0  0  0  0
  -15.6936  -16.5188    8.2429 C   0  0  0  0  0  0  0  0  0  0  0  0
  -15.1186  -18.6403    6.6662 C   0  0  0  0  0  0  0  0  0  0  0  0
  -15.7441  -20.3529    8.4881 C   0  0  0  0  0  0  0  0  0  0  0  0
  -14.9736  -17.4199    6.1072 C   0  0  0  0  0  0  0  0  0  0  0  0
  -15.2383  -16.2361    7.0016 C   0  0  0  0  0  0  0  0  0  0  0  0
  -16.0808  -15.3135    9.1477 C   0  0  0  0  0  0  0  0  0  0  0  0
  -17.0849  -20.9664    7.8783 C   0  0  0  0  0  0  0  0  0  0  0  0
  -14.5718  -21.1175    8.1960 C   0  0  0  0  0  0  0  0  0  0  0  0
  -14.7730  -14.5403    9.6590 C   0  0  0  0  0  0  0  0  0  0  0  0
  -17.0299  -14.3685    8.3337 C   0  0  0  0  0  0  0  0  0  0  0  0
  1  2  1  0  0  0  0
  2  3  1  0  0  0  0
  2  4  1  0  0  0  0
  3  5  1  0  0  0  0
  3  6  1  0  0  0  0
  4  8  1  0  0  0  0
  4  9  1  0  0  0  0
  5  7  1  0  0  0  0
  6 10  1  0  0  0  0
  6 11  1  0  0  0  0
  7  8  1  0  0  0  0
  9 12  1  0  0  0  0
  9 13  1  0  0  0  0
M  END
>  <Score>
0.130855

>  <Energy>
-6.452014

>  <Confidence>
0.869145

>  <Binding_Affinity>
-11.882891

>  <IC50_nM>
1.9

$$$$
ml_pose_1
  PandaDock generated structure

 13 13  0  0  0  0  0  0  0  0999 V2000
  -16.8762  -16.6529    9.4531 O   0  0  0  0  0  0  0  0  0  0  0  0
  -16.0160  -17.4401    8.5302 C   0  0  0  0  0  0  0  0  0  0  0  0
  -16.5474  -18.1314    7.5664 C   0  0  0  0  0  0  0  0  0  0  0  0
  -14.7148  -17.3020    8.7311 C   0  0  0  0  0  0  0  0  0  0  0  0
  -15.7763  -18.9204    6.8132 C   0  0  0  0  0  0  0  0  0  0  0  0
  -18.0901  -18.3106    7.3687 C   0  0  0  0  0  0  0  0  0  0  0  0
  -14.3907  -18.8616    6.7396 C   0  0  0  0  0  0  0  0  0  0  0  0
  -13.8462  -18.1130    7.8105 C   0  0  0  0  0  0  0  0  0  0  0  0
  -14.0586  -16.4323    9.7308 C   0  0  0  0  0  0  0  0  0  0  0  0
  -18.6144  -17.3728    6.2425 C   0  0  0  0  0  0  0  0  0  0  0  0
  -18.5840  -19.6239    7.1204 C   0  0  0  0  0  0  0  0  0  0  0  0
  -13.6115  -17.3283   11.0235 C   0  0  0  0  0  0  0  0  0  0  0  0
  -12.9738  -15.6107    9.2100 C   0  0  0  0  0  0  0  0  0  0  0  0
  1  2  1  0  0  0  0
  2  3  1  0  0  0  0
  2  4  1  0  0  0  0
  3  5  1  0  0  0  0
  3  6  1  0  0  0  0
  4  8  1  0  0  0  0
  4  9  1  0  0  0  0
  5  7  1  0  0  0  0
  6 10  1  0  0  0  0
  6 11  1  0  0  0  0
  7  8  1  0  0  0  0
  9 12  1  0  0  0  0
  9 13  1  0  0  0  0
M  END
>  <Score>
0.137172

>  <Energy>
-6.407762

>  <Confidence>
0.862828

>  <Binding_Affinity>
-11.756567

>  <IC50_nM>
2.4

$$$$
ml_pose_24
  PandaDock generated structure

 13 13  0  0  0  0  0  0  0  0999 V2000
  -16.8283  -18.6892    6.8381 O   0  0  0  0  0  0  0  0  0  0  0  0
  -16.0539  -17.9837    7.7541 C   0  0  0  0  0  0  0  0  0  0  0  0
  -16.6147  -17.2184    8.8670 C   0  0  0  0  0  0  0  0  0  0  0  0
  -14.6491  -17.9323    7.6593 C   0  0  0  0  0  0  0  0  0  0  0  0
  -15.8344  -16.6206    9.8239 C   0  0  0  0  0  0  0  0  0  0  0  0
  -18.1363  -17.2881    8.9815 C   0  0  0  0  0  0  0  0  0  0  0  0
  -14.4376  -16.6030    9.5152 C   0  0  0  0  0  0  0  0  0  0  0  0
  -13.9310  -17.2945    8.5220 C   0  0  0  0  0  0  0  0  0  0  0  0
  -14.0222  -18.7701    6.5188 C   0  0  0  0  0  0  0  0  0  0  0  0
  -18.5850  -18.2994   10.0540 C   0  0  0  0  0  0  0  0  0  0  0  0
  -18.6257  -15.8110    9.3498 C   0  0  0  0  0  0  0  0  0  0  0  0
  -13.4981  -17.8647    5.4221 C   0  0  0  0  0  0  0  0  0  0  0  0
  -12.8836  -19.7249    7.0341 C   0  0  0  0  0  0  0  0  0  0  0  0
  1  2  1  0  0  0  0
  2  3  1  0  0  0  0
  2  4  1  0  0  0  0
  3  5  1  0  0  0  0
  3  6  1  0  0  0  0
  4  8  1  0  0  0  0
  4  9  1  0  0  0  0
  5  7  1  0  0  0  0
  6 10  1  0  0  0  0
  6 11  1  0  0  0  0
  7  8  1  0  0  0  0
  9 12  1  0  0  0  0
  9 13  1  0  0  0  0
M  END
>  <Score>
0.186675

>  <Energy>
-5.207843

>  <Confidence>
0.813325

>  <Binding_Affinity>
-10.766508

>  <IC50_nM>
12.8

$$$$
ml_pose_27
  PandaDock generated structure

 13 13  0  0  0  0  0  0  0  0999 V2000
  -15.8613  -19.5318    8.9582 O   0  0  0  0  0  0  0  0  0  0  0  0
  -15.7133  -18.1960    8.4580 C   0  0  0  0  0  0  0  0  0  0  0  0
  -15.3946  -17.1653    9.1789 C   0  0  0  0  0  0  0  0  0  0  0  0
  -15.9822  -18.1029    7.1041 C   0  0  0  0  0  0  0  0  0  0  0  0
  -15.3872  -15.8293    8.6960 C   0  0  0  0  0  0  0  0  0  0  0  0
  -15.1307  -17.4316   10.6793 C   0  0  0  0  0  0  0  0  0  0  0  0
  -15.6066  -15.7334    7.3079 C   0  0  0  0  0  0  0  0  0  0  0  0
  -15.8971  -16.8221    6.5007 C   0  0  0  0  0  0  0  0  0  0  0  0
  -16.3564  -19.1502    6.2354 C   0  0  0  0  0  0  0  0  0  0  0  0
  -13.6297  -17.4976   10.9783 C   0  0  0  0  0  0  0  0  0  0  0  0
  -15.7098  -16.2794   11.4754 C   0  0  0  0  0  0  0  0  0  0  0  0
  -17.8651  -19.1834    5.8408 C   0  0  0  0  0  0  0  0  0  0  0  0
  -15.5658  -19.1768    4.9271 C   0  0  0  0  0  0  0  0  0  0  0  0
  1  2  1  0  0  0  0
  2  3  1  0  0  0  0
  2  4  1  0  0  0  0
  3  5  1  0  0  0  0
  3  6  1  0  0  0  0
  4  8  1  0  0  0  0
  4  9  1  0  0  0  0
  5  7  1  0  0  0  0
  6 10  1  0  0  0  0
  6 11  1  0  0  0  0
  7  8  1  0  0  0  0
  9 12  1  0  0  0  0
  9 13  1  0  0  0  0
M  END
>  <Score>
0.217897

>  <Energy>
-5.648443

>  <Confidence>
0.782103

>  <Binding_Affinity>
-10.142051

>  <IC50_nM>
36.7

$$$$
ml_pose_26
  PandaDock generated structure

 13 13  0  0  0  0  0  0  0  0999 V2000
  -16.3445  -18.9201    6.7993 O   0  0  0  0  0  0  0  0  0  0  0  0
  -15.8480  -18.0389    7.7880 C   0  0  0  0  0  0  0  0  0  0  0  0
  -16.7453  -17.0460    8.2700 C   0  0  0  0  0  0  0  0  0  0  0  0
  -14.5490  -18.1511    8.1389 C   0  0  0  0  0  0  0  0  0  0  0  0
  -16.2182  -16.2087    9.2186 C   0  0  0  0  0  0  0  0  0  0  0  0
  -18.2289  -17.1037    7.9163 C   0  0  0  0  0  0  0  0  0  0  0  0
  -14.9505  -16.2746    9.6887 C   0  0  0  0  0  0  0  0  0  0  0  0
  -14.0020  -17.2379    9.0343 C   0  0  0  0  0  0  0  0  0  0  0  0
  -13.7113  -19.2709    7.6184 C   0  0  0  0  0  0  0  0  0  0  0  0
  -19.1387  -17.6690    8.9907 C   0  0  0  0  0  0  0  0  0  0  0  0
  -18.5811  -15.5939    7.6329 C   0  0  0  0  0  0  0  0  0  0  0  0
  -12.7596  -18.6837    6.5371 C   0  0  0  0  0  0  0  0  0  0  0  0
  -13.0228  -19.9016    8.7068 C   0  0  0  0  0  0  0  0  0  0  0  0
  1  2  1  0  0  0  0
  2  3  1  0  0  0  0
  2  4  1  0  0  0  0
  3  5  1  0  0  0  0
  3  6  1  0  0  0  0
  4  8  1  0  0  0  0
  4  9  1  0  0  0  0
  5  7  1  0  0  0  0
  6 10  1  0  0  0  0
  6 11  1  0  0  0  0
  7  8  1  0  0  0  0
  9 12  1  0  0  0  0
  9 13  1  0  0  0  0
M  END
>  <Score>
0.231597

>  <Energy>
-7.563428

>  <Confidence>
0.768403

>  <Binding_Affinity>
-9.868069

>  <IC50_nM>
58.3

$$$$
ml_pose_0
  PandaDock generated structure

 13 13  0  0  0  0  0  0  0  0999 V2000
  -14.7473  -18.2735    6.5098 O   0  0  0  0  0  0  0  0  0  0  0  0
  -15.4332  -17.8857    7.7048 C   0  0  0  0  0  0  0  0  0  0  0  0
  -16.7524  -18.1764    7.9205 C   0  0  0  0  0  0  0  0  0  0  0  0
  -14.7866  -17.0946    8.6408 C   0  0  0  0  0  0  0  0  0  0  0  0
  -17.3779  -17.7886    9.0015 C   0  0  0  0  0  0  0  0  0  0  0  0
  -17.4332  -19.0687    6.9437 C   0  0  0  0  0  0  0  0  0  0  0  0
  -16.6597  -17.0101    9.9865 C   0  0  0  0  0  0  0  0  0  0  0  0
  -15.4106  -16.6871    9.7136 C   0  0  0  0  0  0  0  0  0  0  0  0
  -13.2783  -16.6766    8.4418 C   0  0  0  0  0  0  0  0  0  0  0  0
  -17.6112  -20.5718    7.3227 C   0  0  0  0  0  0  0  0  0  0  0  0
  -18.9234  -18.4726    6.6952 C   0  0  0  0  0  0  0  0  0  0  0  0
  -13.2122  -15.3799    7.9047 C   0  0  0  0  0  0  0  0  0  0  0  0
  -12.4740  -17.0144    9.5543 C   0  0  0  0  0  0  0  0  0  0  0  0
  1  2  1  0  0  0  0
  2  3  1  0  0  0  0
  2  4  1  0  0  0  0
  3  5  1  0  0  0  0
  3  6  1  0  0  0  0
  4  8  1  0  0  0  0
  4  9  1  0  0  0  0
  5  7  1  0  0  0  0
  6 10  1  0  0  0  0
  6 11  1  0  0  0  0
  7  8  1  0  0  0  0
  9 12  1  0  0  0  0
  9 13  1  0  0  0  0
M  END
>  <Score>
0.241199

>  <Energy>
-6.528532

>  <Confidence>
0.758801

>  <Binding_Affinity>
-9.676018

>  <IC50_nM>
80.7

$$$$
ml_pose_4
  PandaDock generated structure

 13 13  0  0  0  0  0  0  0  0999 V2000
  -13.9748  -17.5633    7.3321 O   0  0  0  0  0  0  0  0  0  0  0  0
  -15.2462  -17.5087    7.8719 C   0  0  0  0  0  0  0  0  0  0  0  0
  -16.3344  -18.0874    7.1794 C   0  0  0  0  0  0  0  0  0  0  0  0
  -15.3914  -17.2841    9.2922 C   0  0  0  0  0  0  0  0  0  0  0  0
  -17.5540  -18.2840    7.7417 C   0  0  0  0  0  0  0  0  0  0  0  0
  -16.0520  -18.4511    5.6973 C   0  0  0  0  0  0  0  0  0  0  0  0
  -17.6604  -17.9094    9.1690 C   0  0  0  0  0  0  0  0  0  0  0  0
  -16.5652  -17.4275    9.8267 C   0  0  0  0  0  0  0  0  0  0  0  0
  -14.1117  -16.7598   10.0526 C   0  0  0  0  0  0  0  0  0  0  0  0
  -15.8764  -20.0586    5.6281 C   0  0  0  0  0  0  0  0  0  0  0  0
  -17.1272  -18.0003    4.9860 C   0  0  0  0  0  0  0  0  0  0  0  0
  -14.2498  -15.2036   10.2852 C   0  0  0  0  0  0  0  0  0  0  0  0
  -13.9568  -17.5623   11.2778 C   0  0  0  0  0  0  0  0  0  0  0  0
  1  2  1  0  0  0  0
  2  3  1  0  0  0  0
  2  4  1  0  0  0  0
  3  5  1  0  0  0  0
  3  6  1  0  0  0  0
  4  8  1  0  0  0  0
  4  9  1  0  0  0  0
  5  7  1  0  0  0  0
  6 10  1  0  0  0  0
  6 11  1  0  0  0  0
  7  8  1  0  0  0  0
  9 12  1  0  0  0  0
  9 13  1  0  0  0  0
M  END
>  <Score>
0.242677

>  <Energy>
-7.547925

>  <Confidence>
0.757323

>  <Binding_Affinity>
-9.646466

>  <IC50_nM>
84.8

$$$$
ml_pose_19
  PandaDock generated structure

 13 13  0  0  0  0  0  0  0  0999 V2000
  -15.9584  -17.4800   10.1699 O   0  0  0  0  0  0  0  0  0  0  0  0
  -15.7636  -17.6525    8.7940 C   0  0  0  0  0  0  0  0  0  0  0  0
  -16.6523  -17.1153    7.9313 C   0  0  0  0  0  0  0  0  0  0  0  0
  -14.7701  -18.3731    8.2574 C   0  0  0  0  0  0  0  0  0  0  0  0
  -16.4580  -17.2802    6.5184 C   0  0  0  0  0  0  0  0  0  0  0  0
  -17.8739  -16.2442    8.4196 C   0  0  0  0  0  0  0  0  0  0  0  0
  -15.4909  -18.0111    6.0284 C   0  0  0  0  0  0  0  0  0  0  0  0
  -14.6066  -18.6041    6.8778 C   0  0  0  0  0  0  0  0  0  0  0  0
  -13.6839  -18.9289    9.2766 C   0  0  0  0  0  0  0  0  0  0  0  0
  -17.5601  -14.7228    8.2626 C   0  0  0  0  0  0  0  0  0  0  0  0
  -19.1543  -16.5509    7.7098 C   0  0  0  0  0  0  0  0  0  0  0  0
  -13.8102  -20.5366    9.3446 C   0  0  0  0  0  0  0  0  0  0  0  0
  -12.3176  -18.6005    8.7495 C   0  0  0  0  0  0  0  0  0  0  0  0
  1  2  1  0  0  0  0
  2  3  1  0  0  0  0
  2  4  1  0  0  0  0
  3  5  1  0  0  0  0
  3  6  1  0  0  0  0
  4  8  1  0  0  0  0
  4  9  1  0  0  0  0
  5  7  1  0  0  0  0
  6 10  1  0  0  0  0
  6 11  1  0  0  0  0
  7  8  1  0  0  0  0
  9 12  1  0  0  0  0
  9 13  1  0  0  0  0
M  END
>  <Score>
0.282499

>  <Energy>
-6.793680

>  <Confidence>
0.717501

>  <Binding_Affinity>
-8.850020

>  <IC50_nM>
325.3

$$$$
