ml_pose_2
  PandaDock generated structure

 13 13  0  0  0  0  0  0  0  0999 V2000
  -17.6439  -17.2532    8.3063 O   0  0  0  0  0  0  0  0  0  0  0  0
  -16.3009  -17.6546    8.1988 C   0  0  0  0  0  0  0  0  0  0  0  0
  -15.6912  -18.6760    8.8646 C   0  0  0  0  0  0  0  0  0  0  0  0
  -15.3981  -16.7251    7.4419 C   0  0  0  0  0  0  0  0  0  0  0  0
  -14.4084  -18.9385    8.8721 C   0  0  0  0  0  0  0  0  0  0  0  0
  -16.7185  -19.5036    9.7196 C   0  0  0  0  0  0  0  0  0  0  0  0
  -13.5563  -18.1481    8.0672 C   0  0  0  0  0  0  0  0  0  0  0  0
  -14.1286  -16.9914    7.3872 C   0  0  0  0  0  0  0  0  0  0  0  0
  -16.0779  -15.5895    6.7687 C   0  0  0  0  0  0  0  0  0  0  0  0
  -17.0107  -20.8670    9.0292 C   0  0  0  0  0  0  0  0  0  0  0  0
  -16.0009  -19.8821   11.0538 C   0  0  0  0  0  0  0  0  0  0  0  0
  -15.6215  -14.2727    7.3319 C   0  0  0  0  0  0  0  0  0  0  0  0
  -15.5430  -15.5982    5.2988 C   0  0  0  0  0  0  0  0  0  0  0  0
  1  2  1  0  0  0  0
  2  3  1  0  0  0  0
  2  4  1  0  0  0  0
  3  5  1  0  0  0  0
  3  6  1  0  0  0  0
  4  8  1  0  0  0  0
  4  9  1  0  0  0  0
  5  7  1  0  0  0  0
  6 10  1  0  0  0  0
  6 11  1  0  0  0  0
  7  8  1  0  0  0  0
  9 12  1  0  0  0  0
  9 13  1  0  0  0  0
M  END
>  <Score>
0.125137

>  <Energy>
-6.282306

>  <Confidence>
0.874863

>  <Binding_Affinity>
-11.997255

>  <IC50_nM>
1.6

$$$$
