ml_pose_19
  PandaDock generated structure

 13 13  0  0  0  0  0  0  0  0999 V2000
  -15.9584  -17.4800   10.1699 O   0  0  0  0  0  0  0  0  0  0  0  0
  -15.7636  -17.6525    8.7940 C   0  0  0  0  0  0  0  0  0  0  0  0
  -16.6523  -17.1153    7.9313 C   0  0  0  0  0  0  0  0  0  0  0  0
  -14.7701  -18.3731    8.2574 C   0  0  0  0  0  0  0  0  0  0  0  0
  -16.4580  -17.2802    6.5184 C   0  0  0  0  0  0  0  0  0  0  0  0
  -17.8739  -16.2442    8.4196 C   0  0  0  0  0  0  0  0  0  0  0  0
  -15.4909  -18.0111    6.0284 C   0  0  0  0  0  0  0  0  0  0  0  0
  -14.6066  -18.6041    6.8778 C   0  0  0  0  0  0  0  0  0  0  0  0
  -13.6839  -18.9289    9.2766 C   0  0  0  0  0  0  0  0  0  0  0  0
  -17.5601  -14.7228    8.2626 C   0  0  0  0  0  0  0  0  0  0  0  0
  -19.1543  -16.5509    7.7098 C   0  0  0  0  0  0  0  0  0  0  0  0
  -13.8102  -20.5366    9.3446 C   0  0  0  0  0  0  0  0  0  0  0  0
  -12.3176  -18.6005    8.7495 C   0  0  0  0  0  0  0  0  0  0  0  0
  1  2  1  0  0  0  0
  2  3  1  0  0  0  0
  2  4  1  0  0  0  0
  3  5  1  0  0  0  0
  3  6  1  0  0  0  0
  4  8  1  0  0  0  0
  4  9  1  0  0  0  0
  5  7  1  0  0  0  0
  6 10  1  0  0  0  0
  6 11  1  0  0  0  0
  7  8  1  0  0  0  0
  9 12  1  0  0  0  0
  9 13  1  0  0  0  0
M  END
>  <Score>
0.282499

>  <Energy>
-6.793680

>  <Confidence>
0.717501

>  <Binding_Affinity>
-8.850020

>  <IC50_nM>
325.3

$$$$
