ml_pose_1
  PandaDock generated structure

 13 13  0  0  0  0  0  0  0  0999 V2000
  -16.8762  -16.6529    9.4531 O   0  0  0  0  0  0  0  0  0  0  0  0
  -16.0160  -17.4401    8.5302 C   0  0  0  0  0  0  0  0  0  0  0  0
  -16.5474  -18.1314    7.5664 C   0  0  0  0  0  0  0  0  0  0  0  0
  -14.7148  -17.3020    8.7311 C   0  0  0  0  0  0  0  0  0  0  0  0
  -15.7763  -18.9204    6.8132 C   0  0  0  0  0  0  0  0  0  0  0  0
  -18.0901  -18.3106    7.3687 C   0  0  0  0  0  0  0  0  0  0  0  0
  -14.3907  -18.8616    6.7396 C   0  0  0  0  0  0  0  0  0  0  0  0
  -13.8462  -18.1130    7.8105 C   0  0  0  0  0  0  0  0  0  0  0  0
  -14.0586  -16.4323    9.7308 C   0  0  0  0  0  0  0  0  0  0  0  0
  -18.6144  -17.3728    6.2425 C   0  0  0  0  0  0  0  0  0  0  0  0
  -18.5840  -19.6239    7.1204 C   0  0  0  0  0  0  0  0  0  0  0  0
  -13.6115  -17.3283   11.0235 C   0  0  0  0  0  0  0  0  0  0  0  0
  -12.9738  -15.6107    9.2100 C   0  0  0  0  0  0  0  0  0  0  0  0
  1  2  1  0  0  0  0
  2  3  1  0  0  0  0
  2  4  1  0  0  0  0
  3  5  1  0  0  0  0
  3  6  1  0  0  0  0
  4  8  1  0  0  0  0
  4  9  1  0  0  0  0
  5  7  1  0  0  0  0
  6 10  1  0  0  0  0
  6 11  1  0  0  0  0
  7  8  1  0  0  0  0
  9 12  1  0  0  0  0
  9 13  1  0  0  0  0
M  END
>  <Score>
0.137172

>  <Energy>
-6.407762

>  <Confidence>
0.862828

>  <Binding_Affinity>
-11.756567

>  <IC50_nM>
2.4

$$$$
