ml_pose_26
  PandaDock generated structure

 13 13  0  0  0  0  0  0  0  0999 V2000
  -16.3445  -18.9201    6.7993 O   0  0  0  0  0  0  0  0  0  0  0  0
  -15.8480  -18.0389    7.7880 C   0  0  0  0  0  0  0  0  0  0  0  0
  -16.7453  -17.0460    8.2700 C   0  0  0  0  0  0  0  0  0  0  0  0
  -14.5490  -18.1511    8.1389 C   0  0  0  0  0  0  0  0  0  0  0  0
  -16.2182  -16.2087    9.2186 C   0  0  0  0  0  0  0  0  0  0  0  0
  -18.2289  -17.1037    7.9163 C   0  0  0  0  0  0  0  0  0  0  0  0
  -14.9505  -16.2746    9.6887 C   0  0  0  0  0  0  0  0  0  0  0  0
  -14.0020  -17.2379    9.0343 C   0  0  0  0  0  0  0  0  0  0  0  0
  -13.7113  -19.2709    7.6184 C   0  0  0  0  0  0  0  0  0  0  0  0
  -19.1387  -17.6690    8.9907 C   0  0  0  0  0  0  0  0  0  0  0  0
  -18.5811  -15.5939    7.6329 C   0  0  0  0  0  0  0  0  0  0  0  0
  -12.7596  -18.6837    6.5371 C   0  0  0  0  0  0  0  0  0  0  0  0
  -13.0228  -19.9016    8.7068 C   0  0  0  0  0  0  0  0  0  0  0  0
  1  2  1  0  0  0  0
  2  3  1  0  0  0  0
  2  4  1  0  0  0  0
  3  5  1  0  0  0  0
  3  6  1  0  0  0  0
  4  8  1  0  0  0  0
  4  9  1  0  0  0  0
  5  7  1  0  0  0  0
  6 10  1  0  0  0  0
  6 11  1  0  0  0  0
  7  8  1  0  0  0  0
  9 12  1  0  0  0  0
  9 13  1  0  0  0  0
M  END
>  <Score>
0.231597

>  <Energy>
-7.563428

>  <Confidence>
0.768403

>  <Binding_Affinity>
-9.868069

>  <IC50_nM>
58.3

$$$$
