ml_pose_0
  PandaDock generated structure

 13 13  0  0  0  0  0  0  0  0999 V2000
  -14.7473  -18.2735    6.5098 O   0  0  0  0  0  0  0  0  0  0  0  0
  -15.4332  -17.8857    7.7048 C   0  0  0  0  0  0  0  0  0  0  0  0
  -16.7524  -18.1764    7.9205 C   0  0  0  0  0  0  0  0  0  0  0  0
  -14.7866  -17.0946    8.6408 C   0  0  0  0  0  0  0  0  0  0  0  0
  -17.3779  -17.7886    9.0015 C   0  0  0  0  0  0  0  0  0  0  0  0
  -17.4332  -19.0687    6.9437 C   0  0  0  0  0  0  0  0  0  0  0  0
  -16.6597  -17.0101    9.9865 C   0  0  0  0  0  0  0  0  0  0  0  0
  -15.4106  -16.6871    9.7136 C   0  0  0  0  0  0  0  0  0  0  0  0
  -13.2783  -16.6766    8.4418 C   0  0  0  0  0  0  0  0  0  0  0  0
  -17.6112  -20.5718    7.3227 C   0  0  0  0  0  0  0  0  0  0  0  0
  -18.9234  -18.4726    6.6952 C   0  0  0  0  0  0  0  0  0  0  0  0
  -13.2122  -15.3799    7.9047 C   0  0  0  0  0  0  0  0  0  0  0  0
  -12.4740  -17.0144    9.5543 C   0  0  0  0  0  0  0  0  0  0  0  0
  1  2  1  0  0  0  0
  2  3  1  0  0  0  0
  2  4  1  0  0  0  0
  3  5  1  0  0  0  0
  3  6  1  0  0  0  0
  4  8  1  0  0  0  0
  4  9  1  0  0  0  0
  5  7  1  0  0  0  0
  6 10  1  0  0  0  0
  6 11  1  0  0  0  0
  7  8  1  0  0  0  0
  9 12  1  0  0  0  0
  9 13  1  0  0  0  0
M  END
>  <Score>
0.241199

>  <Energy>
-6.528532

>  <Confidence>
0.758801

>  <Binding_Affinity>
-9.676018

>  <IC50_nM>
80.7

$$$$
