ml_pose_1
  PandaDock generated structure

 13 13  0  0  0  0  0  0  0  0999 V2000
  -13.7562  -17.4221    7.7373 O   0  0  0  0  0  0  0  0  0  0  0  0
  -15.1244  -17.6662    8.0599 C   0  0  0  0  0  0  0  0  0  0  0  0
  -15.4340  -18.4990    9.0192 C   0  0  0  0  0  0  0  0  0  0  0  0
  -16.1171  -16.9364    7.3747 C   0  0  0  0  0  0  0  0  0  0  0  0
  -16.7986  -18.7086    9.3449 C   0  0  0  0  0  0  0  0  0  0  0  0
  -14.4548  -19.2950    9.7778 C   0  0  0  0  0  0  0  0  0  0  0  0
  -17.7866  -17.9547    8.7293 C   0  0  0  0  0  0  0  0  0  0  0  0
  -17.4671  -17.1158    7.5998 C   0  0  0  0  0  0  0  0  0  0  0  0
  -15.7450  -15.9659    6.3364 C   0  0  0  0  0  0  0  0  0  0  0  0
  -14.1103  -18.6491   11.0509 C   0  0  0  0  0  0  0  0  0  0  0  0
  -14.8380  -20.7511    9.9847 C   0  0  0  0  0  0  0  0  0  0  0  0
  -16.0896  -16.5260    4.8286 C   0  0  0  0  0  0  0  0  0  0  0  0
  -16.3781  -14.6103    6.4965 C   0  0  0  0  0  0  0  0  0  0  0  0
  1  2  1  0  0  0  0
  2  3  1  0  0  0  0
  2  4  1  0  0  0  0
  3  5  1  0  0  0  0
  3  6  1  0  0  0  0
  4  8  1  0  0  0  0
  4  9  1  0  0  0  0
  5  7  1  0  0  0  0
  6 10  1  0  0  0  0
  6 11  1  0  0  0  0
  7  8  1  0  0  0  0
  9 12  1  0  0  0  0
  9 13  1  0  0  0  0
M  END
>  <Score>
0.109056

>  <Energy>
-5.412777

>  <Confidence>
0.890944

>  <Binding_Affinity>
-2.991548

>  <IC50_uM>
6.41e+03

>  <EC50_uM>
6.41e+04

$$$$
ml_pose_3
  PandaDock generated structure

 13 13  0  0  0  0  0  0  0  0999 V2000
  -17.1287  -16.6231    8.8807 O   0  0  0  0  0  0  0  0  0  0  0  0
  -16.0781  -17.4377    8.4182 C   0  0  0  0  0  0  0  0  0  0  0  0
  -16.1226  -17.6697    7.1020 C   0  0  0  0  0  0  0  0  0  0  0  0
  -15.1200  -17.8620    9.2792 C   0  0  0  0  0  0  0  0  0  0  0  0
  -15.1017  -18.4888    6.5328 C   0  0  0  0  0  0  0  0  0  0  0  0
  -17.2460  -17.0653    6.2290 C   0  0  0  0  0  0  0  0  0  0  0  0
  -14.1357  -18.8762    7.2667 C   0  0  0  0  0  0  0  0  0  0  0  0
  -14.1647  -18.5688    8.6555 C   0  0  0  0  0  0  0  0  0  0  0  0
  -15.1360  -17.5860   10.7576 C   0  0  0  0  0  0  0  0  0  0  0  0
  -16.7356  -15.8851    5.3980 C   0  0  0  0  0  0  0  0  0  0  0  0
  -17.7180  -18.1616    5.1573 C   0  0  0  0  0  0  0  0  0  0  0  0
  -15.5784  -18.7799   11.5140 C   0  0  0  0  0  0  0  0  0  0  0  0
  -13.8345  -17.0957   11.1491 C   0  0  0  0  0  0  0  0  0  0  0  0
  1  2  1  0  0  0  0
  2  3  1  0  0  0  0
  2  4  1  0  0  0  0
  3  5  1  0  0  0  0
  3  6  1  0  0  0  0
  4  8  1  0  0  0  0
  4  9  1  0  0  0  0
  5  7  1  0  0  0  0
  6 10  1  0  0  0  0
  6 11  1  0  0  0  0
  7  8  1  0  0  0  0
  9 12  1  0  0  0  0
  9 13  1  0  0  0  0
M  END
>  <Score>
0.130096

>  <Energy>
-6.710739

>  <Confidence>
0.869904

>  <Binding_Affinity>
-3.195359

>  <IC50_uM>
4.55e+03

>  <EC50_uM>
4.55e+04

$$$$
ml_pose_24
  PandaDock generated structure

 13 13  0  0  0  0  0  0  0  0999 V2000
  -14.4256  -16.7507    6.9780 O   0  0  0  0  0  0  0  0  0  0  0  0
  -15.3721  -17.4579    7.7616 C   0  0  0  0  0  0  0  0  0  0  0  0
  -16.3413  -16.7070    8.3981 C   0  0  0  0  0  0  0  0  0  0  0  0
  -15.1474  -18.7622    8.0688 C   0  0  0  0  0  0  0  0  0  0  0  0
  -17.2420  -17.3098    9.2387 C   0  0  0  0  0  0  0  0  0  0  0  0
  -16.4909  -15.2213    8.1267 C   0  0  0  0  0  0  0  0  0  0  0  0
  -17.0607  -18.7369    9.5832 C   0  0  0  0  0  0  0  0  0  0  0  0
  -16.0750  -19.4019    8.9560 C   0  0  0  0  0  0  0  0  0  0  0  0
  -14.0060  -19.5046    7.4628 C   0  0  0  0  0  0  0  0  0  0  0  0
  -17.4907  -15.0120    7.0542 C   0  0  0  0  0  0  0  0  0  0  0  0
  -16.8876  -14.4841    9.4532 C   0  0  0  0  0  0  0  0  0  0  0  0
  -13.0138  -19.9720    8.4514 C   0  0  0  0  0  0  0  0  0  0  0  0
  -14.5469  -20.7796    6.8074 C   0  0  0  0  0  0  0  0  0  0  0  0
  1  2  1  0  0  0  0
  2  3  1  0  0  0  0
  2  4  1  0  0  0  0
  3  5  1  0  0  0  0
  3  6  1  0  0  0  0
  4  8  1  0  0  0  0
  4  9  1  0  0  0  0
  5  7  1  0  0  0  0
  6 10  1  0  0  0  0
  6 11  1  0  0  0  0
  7  8  1  0  0  0  0
  9 12  1  0  0  0  0
  9 13  1  0  0  0  0
M  END
>  <Score>
0.147794

>  <Energy>
-5.892786

>  <Confidence>
0.852206

>  <Binding_Affinity>
-2.779181

>  <IC50_uM>
9.18e+03

>  <EC50_uM>
9.18e+04

$$$$
ml_pose_4
  PandaDock generated structure

 13 13  0  0  0  0  0  0  0  0999 V2000
  -16.6001  -16.2520    9.2735 O   0  0  0  0  0  0  0  0  0  0  0  0
  -15.9566  -17.3041    8.5004 C   0  0  0  0  0  0  0  0  0  0  0  0
  -14.8364  -17.0867    7.7827 C   0  0  0  0  0  0  0  0  0  0  0  0
  -16.4841  -18.5363    8.4132 C   0  0  0  0  0  0  0  0  0  0  0  0
  -14.2093  -18.0141    7.0329 C   0  0  0  0  0  0  0  0  0  0  0  0
  -14.1941  -15.5162    7.9956 C   0  0  0  0  0  0  0  0  0  0  0  0
  -14.6205  -19.2298    6.9656 C   0  0  0  0  0  0  0  0  0  0  0  0
  -15.9011  -19.5770    7.6236 C   0  0  0  0  0  0  0  0  0  0  0  0
  -17.8319  -18.8002    9.0717 C   0  0  0  0  0  0  0  0  0  0  0  0
  -13.0390  -15.5462    9.0303 C   0  0  0  0  0  0  0  0  0  0  0  0
  -13.6588  -15.2423    6.6197 C   0  0  0  0  0  0  0  0  0  0  0  0
  -19.0704  -18.9574    8.0752 C   0  0  0  0  0  0  0  0  0  0  0  0
  -17.6979  -20.0376    9.9556 C   0  0  0  0  0  0  0  0  0  0  0  0
  1  2  1  0  0  0  0
  2  3  1  0  0  0  0
  2  4  1  0  0  0  0
  3  5  1  0  0  0  0
  3  6  1  0  0  0  0
  4  8  1  0  0  0  0
  4  9  1  0  0  0  0
  5  7  1  0  0  0  0
  6 10  1  0  0  0  0
  6 11  1  0  0  0  0
  7  8  1  0  0  0  0
  9 12  1  0  0  0  0
  9 13  1  0  0  0  0
M  END
>  <Score>
0.151690

>  <Energy>
-6.938765

>  <Confidence>
0.848310

>  <Binding_Affinity>
-2.295574

>  <IC50_uM>
2.08e+04

>  <EC50_uM>
2.08e+05

$$$$
ml_pose_25
  PandaDock generated structure

 13 13  0  0  0  0  0  0  0  0999 V2000
  -15.0239  -16.2460    9.2494 O   0  0  0  0  0  0  0  0  0  0  0  0
  -15.5219  -17.2544    8.5333 C   0  0  0  0  0  0  0  0  0  0  0  0
  -16.8122  -17.2636    7.9217 C   0  0  0  0  0  0  0  0  0  0  0  0
  -14.7001  -18.2990    8.3390 C   0  0  0  0  0  0  0  0  0  0  0  0
  -17.2346  -18.2442    7.2934 C   0  0  0  0  0  0  0  0  0  0  0  0
  -17.7147  -15.9680    8.0938 C   0  0  0  0  0  0  0  0  0  0  0  0
  -16.3878  -19.4919    7.0614 C   0  0  0  0  0  0  0  0  0  0  0  0
  -15.1580  -19.3681    7.6457 C   0  0  0  0  0  0  0  0  0  0  0  0
  -13.3324  -18.4016    8.9392 C   0  0  0  0  0  0  0  0  0  0  0  0
  -17.6505  -15.1159    6.8684 C   0  0  0  0  0  0  0  0  0  0  0  0
  -19.0292  -16.4678    8.3989 C   0  0  0  0  0  0  0  0  0  0  0  0
  -13.2816  -19.2194   10.1488 C   0  0  0  0  0  0  0  0  0  0  0  0
  -12.2531  -18.7602    7.8471 C   0  0  0  0  0  0  0  0  0  0  0  0
  1  2  1  0  0  0  0
  2  3  1  0  0  0  0
  2  4  1  0  0  0  0
  3  5  1  0  0  0  0
  3  6  1  0  0  0  0
  4  8  1  0  0  0  0
  4  9  1  0  0  0  0
  5  7  1  0  0  0  0
  6 10  1  0  0  0  0
  6 11  1  0  0  0  0
  7  8  1  0  0  0  0
  9 12  1  0  0  0  0
  9 13  1  0  0  0  0
M  END
>  <Score>
0.173626

>  <Energy>
-6.604772

>  <Confidence>
0.826374

>  <Binding_Affinity>
-1.988917

>  <IC50_uM>
3.48e+04

>  <EC50_uM>
3.48e+05

$$$$
ml_pose_10
  PandaDock generated structure

 13 13  0  0  0  0  0  0  0  0999 V2000
  -14.7425  -19.4394    8.6534 O   0  0  0  0  0  0  0  0  0  0  0  0
  -15.4286  -18.2029    8.2703 C   0  0  0  0  0  0  0  0  0  0  0  0
  -14.8445  -17.1805    7.6024 C   0  0  0  0  0  0  0  0  0  0  0  0
  -16.6850  -18.0358    8.7414 C   0  0  0  0  0  0  0  0  0  0  0  0
  -15.4575  -16.0288    7.3057 C   0  0  0  0  0  0  0  0  0  0  0  0
  -13.3916  -17.4948    6.9542 C   0  0  0  0  0  0  0  0  0  0  0  0
  -16.6156  -15.7848    7.8001 C   0  0  0  0  0  0  0  0  0  0  0  0
  -17.4242  -16.7343    8.5635 C   0  0  0  0  0  0  0  0  0  0  0  0
  -17.4038  -19.1281    9.6144 C   0  0  0  0  0  0  0  0  0  0  0  0
  -13.4337  -17.8533    5.4838 C   0  0  0  0  0  0  0  0  0  0  0  0
  -12.4157  -16.2232    7.2141 C   0  0  0  0  0  0  0  0  0  0  0  0
  -17.4540  -18.6150   11.1070 C   0  0  0  0  0  0  0  0  0  0  0  0
  -18.8034  -19.3790    9.0298 C   0  0  0  0  0  0  0  0  0  0  0  0
  1  2  1  0  0  0  0
  2  3  1  0  0  0  0
  2  4  1  0  0  0  0
  3  5  1  0  0  0  0
  3  6  1  0  0  0  0
  4  8  1  0  0  0  0
  4  9  1  0  0  0  0
  5  7  1  0  0  0  0
  6 10  1  0  0  0  0
  6 11  1  0  0  0  0
  7  8  1  0  0  0  0
  9 12  1  0  0  0  0
  9 13  1  0  0  0  0
M  END
>  <Score>
0.181672

>  <Energy>
-6.762743

>  <Confidence>
0.818328

>  <Binding_Affinity>
-1.962740

>  <IC50_uM>
3.64e+04

>  <EC50_uM>
3.64e+05

$$$$
ml_pose_6
  PandaDock generated structure

 13 13  0  0  0  0  0  0  0  0999 V2000
  -16.7041  -16.0679    8.0406 O   0  0  0  0  0  0  0  0  0  0  0  0
  -16.0393  -17.1933    8.1668 C   0  0  0  0  0  0  0  0  0  0  0  0
  -16.2209  -18.0676    9.2050 C   0  0  0  0  0  0  0  0  0  0  0  0
  -15.0048  -17.4070    7.1855 C   0  0  0  0  0  0  0  0  0  0  0  0
  -15.4995  -19.3028    9.2785 C   0  0  0  0  0  0  0  0  0  0  0  0
  -17.3671  -17.7939   10.3026 C   0  0  0  0  0  0  0  0  0  0  0  0
  -14.4618  -19.4916    8.2469 C   0  0  0  0  0  0  0  0  0  0  0  0
  -14.3016  -18.6805    7.2910 C   0  0  0  0  0  0  0  0  0  0  0  0
  -14.8276  -16.4464    6.1062 C   0  0  0  0  0  0  0  0  0  0  0  0
  -18.6263  -18.5526    9.9054 C   0  0  0  0  0  0  0  0  0  0  0  0
  -16.6966  -18.1315   11.6098 C   0  0  0  0  0  0  0  0  0  0  0  0
  -13.4803  -15.7624    6.2495 C   0  0  0  0  0  0  0  0  0  0  0  0
  -14.8701  -17.2024    4.7522 C   0  0  0  0  0  0  0  0  0  0  0  0
  1  2  1  0  0  0  0
  2  3  1  0  0  0  0
  2  4  1  0  0  0  0
  3  5  1  0  0  0  0
  3  6  1  0  0  0  0
  4  8  1  0  0  0  0
  4  9  1  0  0  0  0
  5  7  1  0  0  0  0
  6 10  1  0  0  0  0
  6 11  1  0  0  0  0
  7  8  1  0  0  0  0
  9 12  1  0  0  0  0
  9 13  1  0  0  0  0
M  END
>  <Score>
0.216103

>  <Energy>
-5.506803

>  <Confidence>
0.783897

>  <Binding_Affinity>
-1.256268

>  <IC50_uM>
1.20e+05

>  <EC50_uM>
1.20e+06

$$$$
ml_pose_15
  PandaDock generated structure

 13 13  0  0  0  0  0  0  0  0999 V2000
  -15.8852  -17.3346    6.2800 O   0  0  0  0  0  0  0  0  0  0  0  0
  -15.7555  -17.6921    7.6499 C   0  0  0  0  0  0  0  0  0  0  0  0
  -14.8140  -16.9838    8.3464 C   0  0  0  0  0  0  0  0  0  0  0  0
  -16.6280  -18.4345    8.2093 C   0  0  0  0  0  0  0  0  0  0  0  0
  -14.5816  -17.2278    9.6619 C   0  0  0  0  0  0  0  0  0  0  0  0
  -13.7923  -16.0293    7.5056 C   0  0  0  0  0  0  0  0  0  0  0  0
  -15.3578  -18.1031   10.3584 C   0  0  0  0  0  0  0  0  0  0  0  0
  -16.4774  -18.6351    9.6240 C   0  0  0  0  0  0  0  0  0  0  0  0
  -17.6509  -19.2105    7.4325 C   0  0  0  0  0  0  0  0  0  0  0  0
  -14.1969  -14.5692    7.7567 C   0  0  0  0  0  0  0  0  0  0  0  0
  -12.4115  -16.3244    7.9464 C   0  0  0  0  0  0  0  0  0  0  0  0
  -17.4164  -20.5969    7.3273 C   0  0  0  0  0  0  0  0  0  0  0  0
  -19.1325  -18.9586    8.2415 C   0  0  0  0  0  0  0  0  0  0  0  0
  1  2  1  0  0  0  0
  2  3  1  0  0  0  0
  2  4  1  0  0  0  0
  3  5  1  0  0  0  0
  3  6  1  0  0  0  0
  4  8  1  0  0  0  0
  4  9  1  0  0  0  0
  5  7  1  0  0  0  0
  6 10  1  0  0  0  0
  6 11  1  0  0  0  0
  7  8  1  0  0  0  0
  9 12  1  0  0  0  0
  9 13  1  0  0  0  0
M  END
>  <Score>
0.271957

>  <Energy>
-6.020748

>  <Confidence>
0.728043

>  <Binding_Affinity>
-0.895246

>  <IC50_uM>
2.21e+05

>  <EC50_uM>
2.21e+06

$$$$
ml_pose_0
  PandaDock generated structure

 13 13  0  0  0  0  0  0  0  0999 V2000
  -14.6280  -18.8993    6.9705 O   0  0  0  0  0  0  0  0  0  0  0  0
  -15.3849  -18.0413    7.8140 C   0  0  0  0  0  0  0  0  0  0  0  0
  -15.0385  -17.9149    9.2171 C   0  0  0  0  0  0  0  0  0  0  0  0
  -16.4942  -17.2250    7.2655 C   0  0  0  0  0  0  0  0  0  0  0  0
  -15.8115  -17.2854   10.0541 C   0  0  0  0  0  0  0  0  0  0  0  0
  -13.8172  -18.9367    9.7502 C   0  0  0  0  0  0  0  0  0  0  0  0
  -16.9411  -16.4902    9.5132 C   0  0  0  0  0  0  0  0  0  0  0  0
  -17.2177  -16.3677    8.0777 C   0  0  0  0  0  0  0  0  0  0  0  0
  -16.7992  -17.3827    5.8898 C   0  0  0  0  0  0  0  0  0  0  0  0
  -12.6525  -17.9743    9.8403 C   0  0  0  0  0  0  0  0  0  0  0  0
  -14.4405  -19.5684   11.0366 C   0  0  0  0  0  0  0  0  0  0  0  0
  -18.0142  -18.0588    5.5338 C   0  0  0  0  0  0  0  0  0  0  0  0
  -16.8605  -15.9553    5.3773 C   0  0  0  0  0  0  0  0  0  0  0  0
  1  2  1  0  0  0  0
  2  3  1  0  0  0  0
  2  4  1  0  0  0  0
  3  5  1  0  0  0  0
  3  6  1  0  0  0  0
  4  8  1  0  0  0  0
  4  9  1  0  0  0  0
  5  7  1  0  0  0  0
  6 10  1  0  0  0  0
  6 11  1  0  0  0  0
  7  8  1  0  0  0  0
  9 12  1  0  0  0  0
  9 13  1  0  0  0  0
M  END
>  <Score>
0.279206

>  <Energy>
-6.944831

>  <Confidence>
0.720794

>  <Binding_Affinity>
-1.112203

>  <IC50_uM>
1.53e+05

>  <EC50_uM>
1.53e+06

$$$$
ml_pose_23
  PandaDock generated structure

 13 13  0  0  0  0  0  0  0  0999 V2000
  -16.5873  -17.7643   10.0555 O   0  0  0  0  0  0  0  0  0  0  0  0
  -15.9351  -17.6866    8.5919 C   0  0  0  0  0  0  0  0  0  0  0  0
  -16.0311  -18.8087    7.8476 C   0  0  0  0  0  0  0  0  0  0  0  0
  -15.2409  -16.6229    8.2470 C   0  0  0  0  0  0  0  0  0  0  0  0
  -15.4186  -18.8637    6.6872 C   0  0  0  0  0  0  0  0  0  0  0  0
  -16.7201  -20.0460    8.4307 C   0  0  0  0  0  0  0  0  0  0  0  0
  -14.7697  -17.7339    6.1927 C   0  0  0  0  0  0  0  0  0  0  0  0
  -14.6820  -16.5307    7.0726 C   0  0  0  0  0  0  0  0  0  0  0  0
  -15.1214  -15.2743    9.1521 C   0  0  0  0  0  0  0  0  0  0  0  0
  -18.2037  -20.2074    7.7991 C   0  0  0  0  0  0  0  0  0  0  0  0
  -15.9433  -21.3717    8.0415 C   0  0  0  0  0  0  0  0  0  0  0  0
  -13.8127  -15.0665    9.8028 C   0  0  0  0  0  0  0  0  0  0  0  0
  -15.6342  -14.1234    8.4194 C   0  0  0  0  0  0  0  0  0  0  0  0
  1  2  1  0  0  0  0
  2  3  1  0  0  0  0
  2  4  1  0  0  0  0
  3  5  1  0  0  0  0
  3  6  1  0  0  0  0
  4  8  1  0  0  0  0
  4  9  1  0  0  0  0
  5  7  1  0  0  0  0
  6 10  1  0  0  0  0
  6 11  1  0  0  0  0
  7  8  1  0  0  0  0
  9 12  1  0  0  0  0
  9 13  1  0  0  0  0
M  END
>  <Score>
0.289321

>  <Energy>
-5.646702

>  <Confidence>
0.710679

>  <Binding_Affinity>
-0.618757

>  <IC50_uM>
3.52e+05

>  <EC50_uM>
3.52e+06

$$$$
