ml_pose_4
  PandaDock generated structure

 13 13  0  0  0  0  0  0  0  0999 V2000
  -16.6001  -16.2520    9.2735 O   0  0  0  0  0  0  0  0  0  0  0  0
  -15.9566  -17.3041    8.5004 C   0  0  0  0  0  0  0  0  0  0  0  0
  -14.8364  -17.0867    7.7827 C   0  0  0  0  0  0  0  0  0  0  0  0
  -16.4841  -18.5363    8.4132 C   0  0  0  0  0  0  0  0  0  0  0  0
  -14.2093  -18.0141    7.0329 C   0  0  0  0  0  0  0  0  0  0  0  0
  -14.1941  -15.5162    7.9956 C   0  0  0  0  0  0  0  0  0  0  0  0
  -14.6205  -19.2298    6.9656 C   0  0  0  0  0  0  0  0  0  0  0  0
  -15.9011  -19.5770    7.6236 C   0  0  0  0  0  0  0  0  0  0  0  0
  -17.8319  -18.8002    9.0717 C   0  0  0  0  0  0  0  0  0  0  0  0
  -13.0390  -15.5462    9.0303 C   0  0  0  0  0  0  0  0  0  0  0  0
  -13.6588  -15.2423    6.6197 C   0  0  0  0  0  0  0  0  0  0  0  0
  -19.0704  -18.9574    8.0752 C   0  0  0  0  0  0  0  0  0  0  0  0
  -17.6979  -20.0376    9.9556 C   0  0  0  0  0  0  0  0  0  0  0  0
  1  2  1  0  0  0  0
  2  3  1  0  0  0  0
  2  4  1  0  0  0  0
  3  5  1  0  0  0  0
  3  6  1  0  0  0  0
  4  8  1  0  0  0  0
  4  9  1  0  0  0  0
  5  7  1  0  0  0  0
  6 10  1  0  0  0  0
  6 11  1  0  0  0  0
  7  8  1  0  0  0  0
  9 12  1  0  0  0  0
  9 13  1  0  0  0  0
M  END
>  <Score>
0.151690

>  <Energy>
-6.938765

>  <Confidence>
0.848310

>  <Binding_Affinity>
-5.968493

>  <IC50_nM>
42.1

$$$$
