ml_pose_23
  PandaDock generated structure

 13 13  0  0  0  0  0  0  0  0999 V2000
  -16.5873  -17.7643   10.0555 O   0  0  0  0  0  0  0  0  0  0  0  0
  -15.9351  -17.6866    8.5919 C   0  0  0  0  0  0  0  0  0  0  0  0
  -16.0311  -18.8087    7.8476 C   0  0  0  0  0  0  0  0  0  0  0  0
  -15.2409  -16.6229    8.2470 C   0  0  0  0  0  0  0  0  0  0  0  0
  -15.4186  -18.8637    6.6872 C   0  0  0  0  0  0  0  0  0  0  0  0
  -16.7201  -20.0460    8.4307 C   0  0  0  0  0  0  0  0  0  0  0  0
  -14.7697  -17.7339    6.1927 C   0  0  0  0  0  0  0  0  0  0  0  0
  -14.6820  -16.5307    7.0726 C   0  0  0  0  0  0  0  0  0  0  0  0
  -15.1214  -15.2743    9.1521 C   0  0  0  0  0  0  0  0  0  0  0  0
  -18.2037  -20.2074    7.7991 C   0  0  0  0  0  0  0  0  0  0  0  0
  -15.9433  -21.3717    8.0415 C   0  0  0  0  0  0  0  0  0  0  0  0
  -13.8127  -15.0665    9.8028 C   0  0  0  0  0  0  0  0  0  0  0  0
  -15.6342  -14.1234    8.4194 C   0  0  0  0  0  0  0  0  0  0  0  0
  1  2  1  0  0  0  0
  2  3  1  0  0  0  0
  2  4  1  0  0  0  0
  3  5  1  0  0  0  0
  3  6  1  0  0  0  0
  4  8  1  0  0  0  0
  4  9  1  0  0  0  0
  5  7  1  0  0  0  0
  6 10  1  0  0  0  0
  6 11  1  0  0  0  0
  7  8  1  0  0  0  0
  9 12  1  0  0  0  0
  9 13  1  0  0  0  0
M  END
>  <Score>
0.289321

>  <Energy>
-5.646702

>  <Confidence>
0.710679

>  <Binding_Affinity>
-1.608767

>  <IC50_nM>
66167.4

$$$$
