ml_pose_6
  PandaDock generated structure

 13 13  0  0  0  0  0  0  0  0999 V2000
  -16.7041  -16.0679    8.0406 O   0  0  0  0  0  0  0  0  0  0  0  0
  -16.0393  -17.1933    8.1668 C   0  0  0  0  0  0  0  0  0  0  0  0
  -16.2209  -18.0676    9.2050 C   0  0  0  0  0  0  0  0  0  0  0  0
  -15.0048  -17.4070    7.1855 C   0  0  0  0  0  0  0  0  0  0  0  0
  -15.4995  -19.3028    9.2785 C   0  0  0  0  0  0  0  0  0  0  0  0
  -17.3671  -17.7939   10.3026 C   0  0  0  0  0  0  0  0  0  0  0  0
  -14.4618  -19.4916    8.2469 C   0  0  0  0  0  0  0  0  0  0  0  0
  -14.3016  -18.6805    7.2910 C   0  0  0  0  0  0  0  0  0  0  0  0
  -14.8276  -16.4464    6.1062 C   0  0  0  0  0  0  0  0  0  0  0  0
  -18.6263  -18.5526    9.9054 C   0  0  0  0  0  0  0  0  0  0  0  0
  -16.6966  -18.1315   11.6098 C   0  0  0  0  0  0  0  0  0  0  0  0
  -13.4803  -15.7624    6.2495 C   0  0  0  0  0  0  0  0  0  0  0  0
  -14.8701  -17.2024    4.7522 C   0  0  0  0  0  0  0  0  0  0  0  0
  1  2  1  0  0  0  0
  2  3  1  0  0  0  0
  2  4  1  0  0  0  0
  3  5  1  0  0  0  0
  3  6  1  0  0  0  0
  4  8  1  0  0  0  0
  4  9  1  0  0  0  0
  5  7  1  0  0  0  0
  6 10  1  0  0  0  0
  6 11  1  0  0  0  0
  7  8  1  0  0  0  0
  9 12  1  0  0  0  0
  9 13  1  0  0  0  0
M  END
>  <Score>
0.216103

>  <Energy>
-5.506803

>  <Confidence>
0.783897

>  <Binding_Affinity>
-3.266296

>  <IC50_nM>
4032.2

$$$$
