ml_pose_15
  PandaDock generated structure

 13 13  0  0  0  0  0  0  0  0999 V2000
  -15.8852  -17.3346    6.2800 O   0  0  0  0  0  0  0  0  0  0  0  0
  -15.7555  -17.6921    7.6499 C   0  0  0  0  0  0  0  0  0  0  0  0
  -14.8140  -16.9838    8.3464 C   0  0  0  0  0  0  0  0  0  0  0  0
  -16.6280  -18.4345    8.2093 C   0  0  0  0  0  0  0  0  0  0  0  0
  -14.5816  -17.2278    9.6619 C   0  0  0  0  0  0  0  0  0  0  0  0
  -13.7923  -16.0293    7.5056 C   0  0  0  0  0  0  0  0  0  0  0  0
  -15.3578  -18.1031   10.3584 C   0  0  0  0  0  0  0  0  0  0  0  0
  -16.4774  -18.6351    9.6240 C   0  0  0  0  0  0  0  0  0  0  0  0
  -17.6509  -19.2105    7.4325 C   0  0  0  0  0  0  0  0  0  0  0  0
  -14.1969  -14.5692    7.7567 C   0  0  0  0  0  0  0  0  0  0  0  0
  -12.4115  -16.3244    7.9464 C   0  0  0  0  0  0  0  0  0  0  0  0
  -17.4164  -20.5969    7.3273 C   0  0  0  0  0  0  0  0  0  0  0  0
  -19.1325  -18.9586    8.2415 C   0  0  0  0  0  0  0  0  0  0  0  0
  1  2  1  0  0  0  0
  2  3  1  0  0  0  0
  2  4  1  0  0  0  0
  3  5  1  0  0  0  0
  3  6  1  0  0  0  0
  4  8  1  0  0  0  0
  4  9  1  0  0  0  0
  5  7  1  0  0  0  0
  6 10  1  0  0  0  0
  6 11  1  0  0  0  0
  7  8  1  0  0  0  0
  9 12  1  0  0  0  0
  9 13  1  0  0  0  0
M  END
>  <Score>
0.271957

>  <Energy>
-6.020748

>  <Confidence>
0.728043

>  <Binding_Affinity>
-2.327641

>  <IC50_nM>
19663.1

$$$$
