ml_pose_0
  PandaDock generated structure

 13 13  0  0  0  0  0  0  0  0999 V2000
  -14.6280  -18.8993    6.9705 O   0  0  0  0  0  0  0  0  0  0  0  0
  -15.3849  -18.0413    7.8140 C   0  0  0  0  0  0  0  0  0  0  0  0
  -15.0385  -17.9149    9.2171 C   0  0  0  0  0  0  0  0  0  0  0  0
  -16.4942  -17.2250    7.2655 C   0  0  0  0  0  0  0  0  0  0  0  0
  -15.8115  -17.2854   10.0541 C   0  0  0  0  0  0  0  0  0  0  0  0
  -13.8172  -18.9367    9.7502 C   0  0  0  0  0  0  0  0  0  0  0  0
  -16.9411  -16.4902    9.5132 C   0  0  0  0  0  0  0  0  0  0  0  0
  -17.2177  -16.3677    8.0777 C   0  0  0  0  0  0  0  0  0  0  0  0
  -16.7992  -17.3827    5.8898 C   0  0  0  0  0  0  0  0  0  0  0  0
  -12.6525  -17.9743    9.8403 C   0  0  0  0  0  0  0  0  0  0  0  0
  -14.4405  -19.5684   11.0366 C   0  0  0  0  0  0  0  0  0  0  0  0
  -18.0142  -18.0588    5.5338 C   0  0  0  0  0  0  0  0  0  0  0  0
  -16.8605  -15.9553    5.3773 C   0  0  0  0  0  0  0  0  0  0  0  0
  1  2  1  0  0  0  0
  2  3  1  0  0  0  0
  2  4  1  0  0  0  0
  3  5  1  0  0  0  0
  3  6  1  0  0  0  0
  4  8  1  0  0  0  0
  4  9  1  0  0  0  0
  5  7  1  0  0  0  0
  6 10  1  0  0  0  0
  6 11  1  0  0  0  0
  7  8  1  0  0  0  0
  9 12  1  0  0  0  0
  9 13  1  0  0  0  0
M  END
>  <Score>
0.279206

>  <Energy>
-6.944831

>  <Confidence>
0.720794

>  <Binding_Affinity>
-2.891728

>  <IC50_nM>
7588.1

$$$$
