ml_pose_25
  PandaDock generated structure

 13 13  0  0  0  0  0  0  0  0999 V2000
  -15.0239  -16.2460    9.2494 O   0  0  0  0  0  0  0  0  0  0  0  0
  -15.5219  -17.2544    8.5333 C   0  0  0  0  0  0  0  0  0  0  0  0
  -16.8122  -17.2636    7.9217 C   0  0  0  0  0  0  0  0  0  0  0  0
  -14.7001  -18.2990    8.3390 C   0  0  0  0  0  0  0  0  0  0  0  0
  -17.2346  -18.2442    7.2934 C   0  0  0  0  0  0  0  0  0  0  0  0
  -17.7147  -15.9680    8.0938 C   0  0  0  0  0  0  0  0  0  0  0  0
  -16.3878  -19.4919    7.0614 C   0  0  0  0  0  0  0  0  0  0  0  0
  -15.1580  -19.3681    7.6457 C   0  0  0  0  0  0  0  0  0  0  0  0
  -13.3324  -18.4016    8.9392 C   0  0  0  0  0  0  0  0  0  0  0  0
  -17.6505  -15.1159    6.8684 C   0  0  0  0  0  0  0  0  0  0  0  0
  -19.0292  -16.4678    8.3989 C   0  0  0  0  0  0  0  0  0  0  0  0
  -13.2816  -19.2194   10.1488 C   0  0  0  0  0  0  0  0  0  0  0  0
  -12.2531  -18.7602    7.8471 C   0  0  0  0  0  0  0  0  0  0  0  0
  1  2  1  0  0  0  0
  2  3  1  0  0  0  0
  2  4  1  0  0  0  0
  3  5  1  0  0  0  0
  3  6  1  0  0  0  0
  4  8  1  0  0  0  0
  4  9  1  0  0  0  0
  5  7  1  0  0  0  0
  6 10  1  0  0  0  0
  6 11  1  0  0  0  0
  7  8  1  0  0  0  0
  9 12  1  0  0  0  0
  9 13  1  0  0  0  0
M  END
>  <Score>
0.173626

>  <Energy>
-6.604772

>  <Confidence>
0.826374

>  <Binding_Affinity>
-5.171185

>  <IC50_nM>
161.8

$$$$
