ml_pose_10
  PandaDock generated structure

 13 13  0  0  0  0  0  0  0  0999 V2000
  -14.7425  -19.4394    8.6534 O   0  0  0  0  0  0  0  0  0  0  0  0
  -15.4286  -18.2029    8.2703 C   0  0  0  0  0  0  0  0  0  0  0  0
  -14.8445  -17.1805    7.6024 C   0  0  0  0  0  0  0  0  0  0  0  0
  -16.6850  -18.0358    8.7414 C   0  0  0  0  0  0  0  0  0  0  0  0
  -15.4575  -16.0288    7.3057 C   0  0  0  0  0  0  0  0  0  0  0  0
  -13.3916  -17.4948    6.9542 C   0  0  0  0  0  0  0  0  0  0  0  0
  -16.6156  -15.7848    7.8001 C   0  0  0  0  0  0  0  0  0  0  0  0
  -17.4242  -16.7343    8.5635 C   0  0  0  0  0  0  0  0  0  0  0  0
  -17.4038  -19.1281    9.6144 C   0  0  0  0  0  0  0  0  0  0  0  0
  -13.4337  -17.8533    5.4838 C   0  0  0  0  0  0  0  0  0  0  0  0
  -12.4157  -16.2232    7.2141 C   0  0  0  0  0  0  0  0  0  0  0  0
  -17.4540  -18.6150   11.1070 C   0  0  0  0  0  0  0  0  0  0  0  0
  -18.8034  -19.3790    9.0298 C   0  0  0  0  0  0  0  0  0  0  0  0
  1  2  1  0  0  0  0
  2  3  1  0  0  0  0
  2  4  1  0  0  0  0
  3  5  1  0  0  0  0
  3  6  1  0  0  0  0
  4  8  1  0  0  0  0
  4  9  1  0  0  0  0
  5  7  1  0  0  0  0
  6 10  1  0  0  0  0
  6 11  1  0  0  0  0
  7  8  1  0  0  0  0
  9 12  1  0  0  0  0
  9 13  1  0  0  0  0
M  END
>  <Score>
0.181672

>  <Energy>
-6.762743

>  <Confidence>
0.818328

>  <Binding_Affinity>
-5.103124

>  <IC50_nM>
181.6

$$$$
