ga_pose_1128875471
  PandaDock generated structure

 49 55  0  0  0  0  0  0  0  0999 V2000
   10.5593   26.5570    6.5971 O   0  0  0  0  0  0  0  0  0  0  0  0
   13.6759   22.0570    7.6552 O   0  0  0  0  0  0  0  0  0  0  0  0
   11.4881   21.6423    7.6440 O   0  0  0  0  0  0  0  0  0  0  0  0
   13.1129   26.8397    7.7849 N   0  0  0  0  0  0  0  0  0  0  0  0
   11.6002   26.5184    5.8482 C   0  0  0  0  0  0  0  0  0  0  0  0
   12.2385   23.9544    7.5190 C   0  0  0  0  0  0  0  0  0  0  0  0
   13.1214   24.6294    6.4999 C   0  0  0  0  0  0  0  0  0  0  0  0
   12.5493   22.4617    7.5689 C   0  0  0  0  0  0  0  0  0  0  0  0
   12.8275   26.1600    6.4107 C   0  0  0  0  0  0  0  0  0  0  0  0
   12.8606   27.8383    7.7565 H   0  0  0  0  0  0  0  0  0  0  0  0
   14.0613   26.5930    8.2478 H   0  0  0  0  0  0  0  0  0  0  0  0
   12.4582   24.3949    8.6015 H   0  0  0  0  0  0  0  0  0  0  0  0
   11.2968   24.0661    7.2955 H   0  0  0  0  0  0  0  0  0  0  0  0
   14.1818   24.5017    6.6912 H   0  0  0  0  0  0  0  0  0  0  0  0
   12.9261   24.2496    5.4757 H   0  0  0  0  0  0  0  0  0  0  0  0
   13.6943   26.5749    5.8290 H   0  0  0  0  0  0  0  0  0  0  0  0
   10.8668   26.4991    1.5075 O   0  0  0  0  0  0  0  0  0  0  0  0
    9.2146   29.8683    5.0741 O   0  0  0  0  0  0  0  0  0  0  0  0
   11.3974   30.1175    5.0719 O   0  0  0  0  0  0  0  0  0  0  0  0
   11.6047   26.7903    4.5312 N   0  0  0  0  0  0  0  0  0  0  0  0
   10.2475   26.2136    2.6025 C   0  0  0  0  0  0  0  0  0  0  0  0
   10.4977   28.6410    3.4235 C   0  0  0  0  0  0  0  0  0  0  0  0
   10.3418   29.5283    4.5803 C   0  0  0  0  0  0  0  0  0  0  0  0
   10.4684   27.0857    3.7826 C   0  0  0  0  0  0  0  0  0  0  0  0
    9.5488   28.8209    2.7133 H   0  0  0  0  0  0  0  0  0  0  0  0
   11.2869   28.8076    2.8006 H   0  0  0  0  0  0  0  0  0  0  0  0
    9.5966   27.0136    4.4450 H   0  0  0  0  0  0  0  0  0  0  0  0
   12.5090   26.6954    3.9171 H   0  0  0  0  0  0  0  0  0  0  0  0
    7.8084   23.6782   -0.1324 O   0  0  0  0  0  0  0  0  0  0  0  0
    6.9891   24.7814    1.8312 O   0  0  0  0  0  0  0  0  0  0  0  0
    9.5399   25.1971    2.7931 N   0  0  0  0  0  0  0  0  0  0  0  0
   11.1501   21.9632    4.1677 C   0  0  0  0  0  0  0  0  0  0  0  0
   11.9662   22.1137    1.6767 C   0  0  0  0  0  0  0  0  0  0  0  0
    9.5821   22.7559    2.2753 C   0  0  0  0  0  0  0  0  0  0  0  0
    7.8634   24.1503    1.2171 C   0  0  0  0  0  0  0  0  0  0  0  0
   11.0576   22.7563    2.7864 C   0  0  0  0  0  0  0  0  0  0  0  0
    9.2546   24.1510    1.6992 C   0  0  0  0  0  0  0  0  0  0  0  0
   12.1347   22.0094    4.3715 H   0  0  0  0  0  0  0  0  0  0  0  0
   10.7011   20.9056    3.9546 H   0  0  0  0  0  0  0  0  0  0  0  0
   10.5203   22.5715    4.8055 H   0  0  0  0  0  0  0  0  0  0  0  0
   12.9465   22.0705    2.0563 H   0  0  0  0  0  0  0  0  0  0  0  0
   11.8236   22.7222    0.8021 H   0  0  0  0  0  0  0  0  0  0  0  0
   11.4775   21.0037    1.5439 H   0  0  0  0  0  0  0  0  0  0  0  0
    9.4425   22.0154    1.5243 H   0  0  0  0  0  0  0  0  0  0  0  0
    8.9585   22.6012    3.0978 H   0  0  0  0  0  0  0  0  0  0  0  0
   11.3625   23.7438    2.9082 H   0  0  0  0  0  0  0  0  0  0  0  0
   10.0564   24.4220    0.9496 H   0  0  0  0  0  0  0  0  0  0  0  0
    8.9768   25.0318    3.7019 H   0  0  0  0  0  0  0  0  0  0  0  0
   12.2471   26.3253    8.4637 H   0  0  0  0  0  0  0  0  0  0  0  0
  1  5  1  0  0  0  0
  2  8  1  0  0  0  0
  3  8  1  0  0  0  0
  4  9  1  0  0  0  0
  4 10  1  0  0  0  0
  4 11  1  0  0  0  0
  4 49  1  0  0  0  0
  5  9  1  0  0  0  0
  5 20  1  0  0  0  0
  6  7  1  0  0  0  0
  6  8  1  0  0  0  0
  6 12  1  0  0  0  0
  6 13  1  0  0  0  0
  7  9  1  0  0  0  0
  7 14  1  0  0  0  0
  7 15  1  0  0  0  0
  9 16  1  0  0  0  0
 10 11  1  0  0  0  0
 10 49  1  0  0  0  0
 12 13  1  0  0  0  0
 14 15  1  0  0  0  0
 17 21  1  0  0  0  0
 18 23  1  0  0  0  0
 19 23  1  0  0  0  0
 20 24  1  0  0  0  0
 20 28  1  0  0  0  0
 21 24  1  0  0  0  0
 21 31  1  0  0  0  0
 22 23  1  0  0  0  0
 22 24  1  0  0  0  0
 22 25  1  0  0  0  0
 22 26  1  0  0  0  0
 24 27  1  0  0  0  0
 25 26  1  0  0  0  0
 29 35  1  0  0  0  0
 30 35  1  0  0  0  0
 31 37  1  0  0  0  0
 31 48  1  0  0  0  0
 32 36  1  0  0  0  0
 32 38  1  0  0  0  0
 32 39  1  0  0  0  0
 32 40  1  0  0  0  0
 33 36  1  0  0  0  0
 33 41  1  0  0  0  0
 33 42  1  0  0  0  0
 33 43  1  0  0  0  0
 34 36  1  0  0  0  0
 34 37  1  0  0  0  0
 34 44  1  0  0  0  0
 34 45  1  0  0  0  0
 35 37  1  0  0  0  0
 36 46  1  0  0  0  0
 37 47  1  0  0  0  0
 38 40  1  0  0  0  0
 44 45  1  0  0  0  0
M  END
>  <Score>
15.000000

>  <Energy>
-15.000000

>  <Confidence>
0.000000

>  <Binding_Affinity>
-5.250000

>  <IC50_nM>
141.7

$$$$
