ga_pose_2179385882
  PandaDock generated structure

 49 53  0  0  0  0  0  0  0  0999 V2000
    9.9668   23.4670    5.8381 O   0  0  0  0  0  0  0  0  0  0  0  0
    6.9088   27.4947    3.4018 O   0  0  0  0  0  0  0  0  0  0  0  0
    6.8061   27.5378    5.6228 O   0  0  0  0  0  0  0  0  0  0  0  0
    8.8216   23.2016    3.2204 N   0  0  0  0  0  0  0  0  0  0  0  0
   10.5714   24.0213    4.8347 C   0  0  0  0  0  0  0  0  0  0  0  0
    7.8957   25.6660    4.5817 C   0  0  0  0  0  0  0  0  0  0  0  0
    9.1404   25.6023    3.6907 C   0  0  0  0  0  0  0  0  0  0  0  0
    7.0944   27.0369    4.4030 C   0  0  0  0  0  0  0  0  0  0  0  0
    9.8158   24.1572    3.6293 C   0  0  0  0  0  0  0  0  0  0  0  0
    9.3922   22.2028    3.3111 H   0  0  0  0  0  0  0  0  0  0  0  0
    8.3613   23.4065    2.4618 H   0  0  0  0  0  0  0  0  0  0  0  0
    7.2441   24.8059    4.2927 H   0  0  0  0  0  0  0  0  0  0  0  0
    8.1678   25.5399    5.6284 H   0  0  0  0  0  0  0  0  0  0  0  0
    8.7859   25.8303    2.6239 H   0  0  0  0  0  0  0  0  0  0  0  0
    9.8308   26.3103    4.0755 H   0  0  0  0  0  0  0  0  0  0  0  0
   10.5414   24.2141    2.8247 H   0  0  0  0  0  0  0  0  0  0  0  0
   14.3796   25.7313    5.9242 O   0  0  0  0  0  0  0  0  0  0  0  0
   12.7809   21.0396    6.7442 O   0  0  0  0  0  0  0  0  0  0  0  0
   12.7493   21.2455    4.5742 O   0  0  0  0  0  0  0  0  0  0  0  0
   11.8580   24.2398    4.8573 N   0  0  0  0  0  0  0  0  0  0  0  0
   13.4458   25.4362    6.5616 C   0  0  0  0  0  0  0  0  0  0  0  0
   13.6192   22.9593    5.8347 C   0  0  0  0  0  0  0  0  0  0  0  0
   12.9586   21.6242    5.7503 C   0  0  0  0  0  0  0  0  0  0  0  0
   12.7616   24.0689    6.0946 C   0  0  0  0  0  0  0  0  0  0  0  0
   14.3741   22.8384    6.6736 H   0  0  0  0  0  0  0  0  0  0  0  0
   14.2073   23.1652    4.8628 H   0  0  0  0  0  0  0  0  0  0  0  0
   11.9830   23.7408    6.9138 H   0  0  0  0  0  0  0  0  0  0  0  0
   12.3141   24.7053    3.9591 H   0  0  0  0  0  0  0  0  0  0  0  0
   14.7660   28.3188    9.4183 O   0  0  0  0  0  0  0  0  0  0  0  0
   13.4935   26.6065    9.9800 O   0  0  0  0  0  0  0  0  0  0  0  0
   12.8919   26.1111    7.3994 N   0  0  0  0  0  0  0  0  0  0  0  0
   10.2257   28.6481    6.2058 C   0  0  0  0  0  0  0  0  0  0  0  0
   12.3798   29.7642    5.4291 C   0  0  0  0  0  0  0  0  0  0  0  0
   12.2030   28.5649    7.6741 C   0  0  0  0  0  0  0  0  0  0  0  0
   13.9348   27.4537    9.1589 C   0  0  0  0  0  0  0  0  0  0  0  0
   11.6727   28.6928    6.2924 C   0  0  0  0  0  0  0  0  0  0  0  0
   13.2851   27.4234    7.8400 C   0  0  0  0  0  0  0  0  0  0  0  0
    9.9101   28.8092    5.1131 H   0  0  0  0  0  0  0  0  0  0  0  0
    9.9209   29.5455    6.7790 H   0  0  0  0  0  0  0  0  0  0  0  0
    9.7717   27.7294    6.5914 H   0  0  0  0  0  0  0  0  0  0  0  0
   11.9493   29.8801    4.4934 H   0  0  0  0  0  0  0  0  0  0  0  0
   13.4782   29.6360    5.5566 H   0  0  0  0  0  0  0  0  0  0  0  0
   12.0936   30.7590    6.0991 H   0  0  0  0  0  0  0  0  0  0  0  0
   12.4984   29.5171    8.0051 H   0  0  0  0  0  0  0  0  0  0  0  0
   11.2735   28.2363    8.2076 H   0  0  0  0  0  0  0  0  0  0  0  0
   11.8953   27.6596    5.6915 H   0  0  0  0  0  0  0  0  0  0  0  0
   14.0629   27.5926    7.0529 H   0  0  0  0  0  0  0  0  0  0  0  0
   11.8964   25.7455    7.7955 H   0  0  0  0  0  0  0  0  0  0  0  0
    8.0740   23.0864    4.0937 H   0  0  0  0  0  0  0  0  0  0  0  0
  1  5  1  0  0  0  0
  2  8  1  0  0  0  0
  3  8  1  0  0  0  0
  4  9  1  0  0  0  0
  4 10  1  0  0  0  0
  4 11  1  0  0  0  0
  4 49  1  0  0  0  0
  5  9  1  0  0  0  0
  5 20  1  0  0  0  0
  6  7  1  0  0  0  0
  6  8  1  0  0  0  0
  6 12  1  0  0  0  0
  6 13  1  0  0  0  0
  7  9  1  0  0  0  0
  7 14  1  0  0  0  0
  7 15  1  0  0  0  0
  9 16  1  0  0  0  0
 10 11  1  0  0  0  0
 10 49  1  0  0  0  0
 11 49  1  0  0  0  0
 12 13  1  0  0  0  0
 17 21  1  0  0  0  0
 18 23  1  0  0  0  0
 19 23  1  0  0  0  0
 20 24  1  0  0  0  0
 20 28  1  0  0  0  0
 21 24  1  0  0  0  0
 21 31  1  0  0  0  0
 22 23  1  0  0  0  0
 22 24  1  0  0  0  0
 22 25  1  0  0  0  0
 22 26  1  0  0  0  0
 24 27  1  0  0  0  0
 29 35  1  0  0  0  0
 30 35  1  0  0  0  0
 31 37  1  0  0  0  0
 31 48  1  0  0  0  0
 32 36  1  0  0  0  0
 32 38  1  0  0  0  0
 32 39  1  0  0  0  0
 32 40  1  0  0  0  0
 33 36  1  0  0  0  0
 33 41  1  0  0  0  0
 33 42  1  0  0  0  0
 33 43  1  0  0  0  0
 34 36  1  0  0  0  0
 34 37  1  0  0  0  0
 34 44  1  0  0  0  0
 34 45  1  0  0  0  0
 35 37  1  0  0  0  0
 36 46  1  0  0  0  0
 37 47  1  0  0  0  0
 44 45  1  0  0  0  0
M  END
>  <Score>
15.000000

>  <Energy>
-15.000000

>  <Confidence>
0.000000

>  <Binding_Affinity>
-5.250000

>  <IC50_nM>
141.7

$$$$
