ga_pose_4229958037
  PandaDock generated structure

 49 55  0  0  0  0  0  0  0  0999 V2000
   10.0784   24.2130    3.3715 O   0  0  0  0  0  0  0  0  0  0  0  0
    9.0691   28.3777    7.1715 O   0  0  0  0  0  0  0  0  0  0  0  0
    8.3368   26.4267    7.7278 O   0  0  0  0  0  0  0  0  0  0  0  0
    9.5121   26.8485    2.7256 N   0  0  0  0  0  0  0  0  0  0  0  0
   10.9927   25.0948    3.4801 C   0  0  0  0  0  0  0  0  0  0  0  0
    9.1146   26.6131    5.4997 C   0  0  0  0  0  0  0  0  0  0  0  0
   10.3838   27.1242    4.9668 C   0  0  0  0  0  0  0  0  0  0  0  0
    8.8426   27.2085    6.9303 C   0  0  0  0  0  0  0  0  0  0  0  0
   10.7365   26.6206    3.4029 C   0  0  0  0  0  0  0  0  0  0  0  0
    9.5968   26.5484    1.6203 H   0  0  0  0  0  0  0  0  0  0  0  0
    9.2372   28.0235    2.5763 H   0  0  0  0  0  0  0  0  0  0  0  0
    8.2627   26.8629    4.9514 H   0  0  0  0  0  0  0  0  0  0  0  0
    9.1308   25.5790    5.6501 H   0  0  0  0  0  0  0  0  0  0  0  0
   10.4815   28.1718    4.8920 H   0  0  0  0  0  0  0  0  0  0  0  0
   11.3603   26.7217    5.4430 H   0  0  0  0  0  0  0  0  0  0  0  0
   11.4571   27.2240    3.1858 H   0  0  0  0  0  0  0  0  0  0  0  0
   14.9729   23.4932    4.4994 O   0  0  0  0  0  0  0  0  0  0  0  0
   11.7401   22.2418    0.8833 O   0  0  0  0  0  0  0  0  0  0  0  0
   12.3091   24.2837    0.2555 O   0  0  0  0  0  0  0  0  0  0  0  0
   12.3315   24.9393    3.4577 N   0  0  0  0  0  0  0  0  0  0  0  0
   13.7647   23.2731    4.5479 C   0  0  0  0  0  0  0  0  0  0  0  0
   13.3847   23.0478    2.0602 C   0  0  0  0  0  0  0  0  0  0  0  0
   12.3631   23.1501    0.9515 C   0  0  0  0  0  0  0  0  0  0  0  0
   12.6954   23.4746    3.4445 C   0  0  0  0  0  0  0  0  0  0  0  0
   13.9667   22.1130    2.1908 H   0  0  0  0  0  0  0  0  0  0  0  0
   14.1928   24.0202    1.9545 H   0  0  0  0  0  0  0  0  0  0  0  0
   11.8492   22.8194    3.6306 H   0  0  0  0  0  0  0  0  0  0  0  0
   13.0127   25.6869    3.4438 H   0  0  0  0  0  0  0  0  0  0  0  0
   15.3293   20.8680    7.8397 O   0  0  0  0  0  0  0  0  0  0  0  0
   13.5434   20.2888    6.7969 O   0  0  0  0  0  0  0  0  0  0  0  0
   13.2065   22.7960    5.6755 N   0  0  0  0  0  0  0  0  0  0  0  0
   11.7600   25.1678    8.2915 C   0  0  0  0  0  0  0  0  0  0  0  0
   14.2982   25.4311    8.6054 C   0  0  0  0  0  0  0  0  0  0  0  0
   13.3011   23.1281    8.1253 C   0  0  0  0  0  0  0  0  0  0  0  0
   14.3735   21.0368    7.2444 C   0  0  0  0  0  0  0  0  0  0  0  0
   13.1940   24.6625    7.8787 C   0  0  0  0  0  0  0  0  0  0  0  0
   13.9334   22.6287    6.9982 C   0  0  0  0  0  0  0  0  0  0  0  0
   11.7437   26.2809    8.1888 H   0  0  0  0  0  0  0  0  0  0  0  0
   11.5726   24.9510    9.3156 H   0  0  0  0  0  0  0  0  0  0  0  0
   11.1204   24.6493    7.6031 H   0  0  0  0  0  0  0  0  0  0  0  0
   14.1846   26.5467    8.4103 H   0  0  0  0  0  0  0  0  0  0  0  0
   15.3337   25.2005    8.1679 H   0  0  0  0  0  0  0  0  0  0  0  0
   14.2869   25.1576    9.6764 H   0  0  0  0  0  0  0  0  0  0  0  0
   13.8446   23.0173    9.0274 H   0  0  0  0  0  0  0  0  0  0  0  0
   12.2380   22.6929    8.2490 H   0  0  0  0  0  0  0  0  0  0  0  0
   13.3570   24.9205    6.8440 H   0  0  0  0  0  0  0  0  0  0  0  0
   14.9042   22.9893    6.7303 H   0  0  0  0  0  0  0  0  0  0  0  0
   12.0077   22.5226    5.6754 H   0  0  0  0  0  0  0  0  0  0  0  0
    8.5907   26.3862    3.0289 H   0  0  0  0  0  0  0  0  0  0  0  0
  1  5  1  0  0  0  0
  2  8  1  0  0  0  0
  3  8  1  0  0  0  0
  4  9  1  0  0  0  0
  4 10  1  0  0  0  0
  4 11  1  0  0  0  0
  4 49  1  0  0  0  0
  5  9  1  0  0  0  0
  5 20  1  0  0  0  0
  6  7  1  0  0  0  0
  6  8  1  0  0  0  0
  6 12  1  0  0  0  0
  6 13  1  0  0  0  0
  7  9  1  0  0  0  0
  7 14  1  0  0  0  0
  7 15  1  0  0  0  0
  9 16  1  0  0  0  0
 10 11  1  0  0  0  0
 10 49  1  0  0  0  0
 12 13  1  0  0  0  0
 14 15  1  0  0  0  0
 17 21  1  0  0  0  0
 18 23  1  0  0  0  0
 19 23  1  0  0  0  0
 20 24  1  0  0  0  0
 20 28  1  0  0  0  0
 21 24  1  0  0  0  0
 21 31  1  0  0  0  0
 22 23  1  0  0  0  0
 22 24  1  0  0  0  0
 22 25  1  0  0  0  0
 22 26  1  0  0  0  0
 24 27  1  0  0  0  0
 29 35  1  0  0  0  0
 30 35  1  0  0  0  0
 31 37  1  0  0  0  0
 31 48  1  0  0  0  0
 32 36  1  0  0  0  0
 32 38  1  0  0  0  0
 32 39  1  0  0  0  0
 32 40  1  0  0  0  0
 33 36  1  0  0  0  0
 33 41  1  0  0  0  0
 33 42  1  0  0  0  0
 33 43  1  0  0  0  0
 34 36  1  0  0  0  0
 34 37  1  0  0  0  0
 34 44  1  0  0  0  0
 34 45  1  0  0  0  0
 35 37  1  0  0  0  0
 36 46  1  0  0  0  0
 37 47  1  0  0  0  0
 38 39  1  0  0  0  0
 39 40  1  0  0  0  0
 41 42  1  0  0  0  0
M  END
>  <Score>
15.000000

>  <Energy>
-15.000000

>  <Confidence>
0.000000

>  <Binding_Affinity>
-5.250000

>  <IC50_nM>
141.7

$$$$
