ga_pose_5395618021
  PandaDock generated structure

 49 56  0  0  0  0  0  0  0  0999 V2000
   10.0966   24.6309    8.3944 O   0  0  0  0  0  0  0  0  0  0  0  0
    8.6732   21.0823    4.3590 O   0  0  0  0  0  0  0  0  0  0  0  0
    7.0553   22.3686    5.2076 O   0  0  0  0  0  0  0  0  0  0  0  0
   11.3176   22.2239    8.2528 N   0  0  0  0  0  0  0  0  0  0  0  0
   11.0232   24.6032    7.5931 C   0  0  0  0  0  0  0  0  0  0  0  0
    8.9884   22.4459    6.3390 C   0  0  0  0  0  0  0  0  0  0  0  0
   10.4916   22.8195    6.0280 C   0  0  0  0  0  0  0  0  0  0  0  0
    8.1637   21.9010    5.1360 C   0  0  0  0  0  0  0  0  0  0  0  0
   11.3547   23.2078    7.0518 C   0  0  0  0  0  0  0  0  0  0  0  0
   12.0375   22.5113    9.0552 H   0  0  0  0  0  0  0  0  0  0  0  0
   11.5725   21.2459    7.8054 H   0  0  0  0  0  0  0  0  0  0  0  0
    9.0963   21.6908    7.1920 H   0  0  0  0  0  0  0  0  0  0  0  0
    8.5250   23.4598    6.8054 H   0  0  0  0  0  0  0  0  0  0  0  0
   11.0133   21.8136    5.4281 H   0  0  0  0  0  0  0  0  0  0  0  0
   10.5095   23.5936    5.1377 H   0  0  0  0  0  0  0  0  0  0  0  0
   12.4238   23.2277    6.6794 H   0  0  0  0  0  0  0  0  0  0  0  0
   12.2316   28.2272    5.4464 O   0  0  0  0  0  0  0  0  0  0  0  0
   12.1028   27.1128   10.5381 O   0  0  0  0  0  0  0  0  0  0  0  0
   13.6571   25.8769    9.7176 O   0  0  0  0  0  0  0  0  0  0  0  0
   11.7665   25.5553    7.0521 N   0  0  0  0  0  0  0  0  0  0  0  0
   11.3212   27.8184    6.1666 C   0  0  0  0  0  0  0  0  0  0  0  0
   12.6871   27.5428    8.2982 C   0  0  0  0  0  0  0  0  0  0  0  0
   12.8708   26.7214    9.5809 C   0  0  0  0  0  0  0  0  0  0  0  0
   11.5489   26.9255    7.5154 C   0  0  0  0  0  0  0  0  0  0  0  0
   12.6191   28.5912    8.3850 H   0  0  0  0  0  0  0  0  0  0  0  0
   13.5540   27.3585    7.6711 H   0  0  0  0  0  0  0  0  0  0  0  0
   10.5596   27.0061    8.0691 H   0  0  0  0  0  0  0  0  0  0  0  0
   12.5313   25.3114    6.3182 H   0  0  0  0  0  0  0  0  0  0  0  0
    9.1455   30.9704    4.0634 O   0  0  0  0  0  0  0  0  0  0  0  0
    8.5336   30.2507    6.1489 O   0  0  0  0  0  0  0  0  0  0  0  0
   10.0480   27.9797    5.9062 N   0  0  0  0  0  0  0  0  0  0  0  0
    8.4000   25.4860    3.6447 C   0  0  0  0  0  0  0  0  0  0  0  0
    9.8027   26.7892    1.9775 C   0  0  0  0  0  0  0  0  0  0  0  0
    8.7196   27.8614    3.8185 C   0  0  0  0  0  0  0  0  0  0  0  0
    9.0645   29.9888    4.9371 C   0  0  0  0  0  0  0  0  0  0  0  0
    9.3423   26.4852    3.3579 C   0  0  0  0  0  0  0  0  0  0  0  0
    9.5208   28.6842    4.6077 C   0  0  0  0  0  0  0  0  0  0  0  0
    8.8554   24.4884    3.3315 H   0  0  0  0  0  0  0  0  0  0  0  0
    7.5198   25.5731    2.9358 H   0  0  0  0  0  0  0  0  0  0  0  0
    8.0896   25.2464    4.5846 H   0  0  0  0  0  0  0  0  0  0  0  0
   10.3662   25.7189    1.6465 H   0  0  0  0  0  0  0  0  0  0  0  0
   10.5507   27.4223    1.8977 H   0  0  0  0  0  0  0  0  0  0  0  0
    9.0161   26.9120    1.2973 H   0  0  0  0  0  0  0  0  0  0  0  0
    8.3937   28.2952    2.9859 H   0  0  0  0  0  0  0  0  0  0  0  0
    7.8703   27.6510    4.4421 H   0  0  0  0  0  0  0  0  0  0  0  0
   10.1665   26.3558    4.0971 H   0  0  0  0  0  0  0  0  0  0  0  0
   10.6029   28.8456    4.0362 H   0  0  0  0  0  0  0  0  0  0  0  0
    9.2515   27.4844    6.4975 H   0  0  0  0  0  0  0  0  0  0  0  0
   10.2814   22.2429    8.5481 H   0  0  0  0  0  0  0  0  0  0  0  0
  1  5  1  0  0  0  0
  2  8  1  0  0  0  0
  3  8  1  0  0  0  0
  4  9  1  0  0  0  0
  4 10  1  0  0  0  0
  4 11  1  0  0  0  0
  4 49  1  0  0  0  0
  5  9  1  0  0  0  0
  5 20  1  0  0  0  0
  6  7  1  0  0  0  0
  6  8  1  0  0  0  0
  6 12  1  0  0  0  0
  6 13  1  0  0  0  0
  7  9  1  0  0  0  0
  7 14  1  0  0  0  0
  7 15  1  0  0  0  0
  9 16  1  0  0  0  0
 11 49  1  0  0  0  0
 17 21  1  0  0  0  0
 18 23  1  0  0  0  0
 19 23  1  0  0  0  0
 20 24  1  0  0  0  0
 20 28  1  0  0  0  0
 21 24  1  0  0  0  0
 21 31  1  0  0  0  0
 22 23  1  0  0  0  0
 22 24  1  0  0  0  0
 22 25  1  0  0  0  0
 22 26  1  0  0  0  0
 24 27  1  0  0  0  0
 25 26  1  0  0  0  0
 29 35  1  0  0  0  0
 30 35  1  0  0  0  0
 31 37  1  0  0  0  0
 31 48  1  0  0  0  0
 32 36  1  0  0  0  0
 32 38  1  0  0  0  0
 32 39  1  0  0  0  0
 32 40  1  0  0  0  0
 33 36  1  0  0  0  0
 33 41  1  0  0  0  0
 33 42  1  0  0  0  0
 33 43  1  0  0  0  0
 34 36  1  0  0  0  0
 34 37  1  0  0  0  0
 34 44  1  0  0  0  0
 34 45  1  0  0  0  0
 35 37  1  0  0  0  0
 36 46  1  0  0  0  0
 37 47  1  0  0  0  0
 38 39  1  0  0  0  0
 38 40  1  0  0  0  0
 39 40  1  0  0  0  0
 41 42  1  0  0  0  0
 42 43  1  0  0  0  0
 44 45  1  0  0  0  0
M  END
>  <Score>
15.000000

>  <Energy>
-15.000000

>  <Confidence>
0.000000

>  <Binding_Affinity>
-5.250000

>  <IC50_nM>
141.7

$$$$
