ml_pose_9
  PandaDock generated structure

 13  0  0  0  0  0  0  0  0999 V2000
  -15.6399  -16.7886    6.3973 C   0  0  0  0  0  0  0  0  0  0  0  0
  -15.7339  -17.4316    7.7307 C   0  0  0  0  0  0  0  0  0  0  0  0
  -16.8427  -18.0046    8.1168 C   0  0  0  0  0  0  0  0  0  0  0  0
  -14.4956  -17.4578    8.4464 C   0  0  0  0  0  0  0  0  0  0  0  0
  -16.9005  -18.7103    9.3833 C   0  0  0  0  0  0  0  0  0  0  0  0
  -18.0513  -18.0068    7.2245 C   0  0  0  0  0  0  0  0  0  0  0  0
  -15.7735  -18.7835   10.1109 C   0  0  0  0  0  0  0  0  0  0  0  0
  -14.4983  -18.0575    9.6921 C   0  0  0  0  0  0  0  0  0  0  0  0
  -13.3577  -16.7440    8.0373 C   0  0  0  0  0  0  0  0  0  0  0  0
  -18.2720  -19.3430    6.3892 C   0  0  0  0  0  0  0  0  0  0  0  0
  -19.3714  -17.7097    8.1372 C   0  0  0  0  0  0  0  0  0  0  0  0
  -13.0612  -15.4092    8.6164 C   0  0  0  0  0  0  0  0  0  0  0  0
  -12.1019  -17.6535    8.0580 C   0  0  0  0  0  0  0  0  0  0  0  0
M  END
>  <Score>
0.165337

>  <Energy>
-8.615635

>  <Confidence>
0.834663

>  <Binding_Affinity>
0.224859

>  <IC50_nM>
inf

$$$$
ml_pose_5
  PandaDock generated structure

 13  0  0  0  0  0  0  0  0999 V2000
  -17.4848  -18.6378    8.0139 C   0  0  0  0  0  0  0  0  0  0  0  0
  -16.2096  -17.9332    8.1594 C   0  0  0  0  0  0  0  0  0  0  0  0
  -15.0023  -18.6241    8.3901 C   0  0  0  0  0  0  0  0  0  0  0  0
  -16.1173  -16.6620    7.9498 C   0  0  0  0  0  0  0  0  0  0  0  0
  -13.8462  -17.9879    8.5680 C   0  0  0  0  0  0  0  0  0  0  0  0
  -15.1011  -20.2084    8.6385 C   0  0  0  0  0  0  0  0  0  0  0  0
  -13.8110  -16.6394    8.3559 C   0  0  0  0  0  0  0  0  0  0  0  0
  -15.0388  -15.9091    8.1155 C   0  0  0  0  0  0  0  0  0  0  0  0
  -17.5269  -15.8905    7.7487 C   0  0  0  0  0  0  0  0  0  0  0  0
  -14.5259  -20.9311    7.4182 C   0  0  0  0  0  0  0  0  0  0  0  0
  -14.1099  -20.6292    9.8231 C   0  0  0  0  0  0  0  0  0  0  0  0
  -17.9880  -15.0984    8.7218 C   0  0  0  0  0  0  0  0  0  0  0  0
  -17.3382  -14.9489    6.4373 C   0  0  0  0  0  0  0  0  0  0  0  0
M  END
>  <Score>
0.175174

>  <Energy>
-5.275608

>  <Confidence>
0.824826

>  <Binding_Affinity>
0.238236

>  <IC50_nM>
inf

$$$$
ml_pose_10
  PandaDock generated structure

 13  0  0  0  0  0  0  0  0999 V2000
  -13.8210  -18.0167    8.6228 C   0  0  0  0  0  0  0  0  0  0  0  0
  -15.2444  -17.7430    8.3877 C   0  0  0  0  0  0  0  0  0  0  0  0
  -15.9384  -16.9627    9.1627 C   0  0  0  0  0  0  0  0  0  0  0  0
  -15.6549  -18.3565    7.1238 C   0  0  0  0  0  0  0  0  0  0  0  0
  -17.2881  -16.9199    8.7347 C   0  0  0  0  0  0  0  0  0  0  0  0
  -15.3617  -16.4134   10.4526 C   0  0  0  0  0  0  0  0  0  0  0  0
  -17.8527  -17.5282    7.5882 C   0  0  0  0  0  0  0  0  0  0  0  0
  -17.0150  -18.1848    6.8959 C   0  0  0  0  0  0  0  0  0  0  0  0
  -14.7693  -19.2228    6.2928 C   0  0  0  0  0  0  0  0  0  0  0  0
  -15.1330  -14.8674   10.1949 C   0  0  0  0  0  0  0  0  0  0  0  0
  -16.2124  -16.6349   11.5988 C   0  0  0  0  0  0  0  0  0  0  0  0
  -14.9526  -20.5251    6.4161 C   0  0  0  0  0  0  0  0  0  0  0  0
  -14.8565  -18.7247    4.8690 C   0  0  0  0  0  0  0  0  0  0  0  0
M  END
>  <Score>
0.215086

>  <Energy>
-5.103731

>  <Confidence>
0.784914

>  <Binding_Affinity>
0.292517

>  <IC50_nM>
inf

$$$$
ml_pose_24
  PandaDock generated structure

 13  0  0  0  0  0  0  0  0999 V2000
  -15.2418  -19.6582    8.4190 C   0  0  0  0  0  0  0  0  0  0  0  0
  -15.5164  -18.2379    8.3173 C   0  0  0  0  0  0  0  0  0  0  0  0
  -15.9775  -17.8151    7.0620 C   0  0  0  0  0  0  0  0  0  0  0  0
  -15.3409  -17.3525    9.2209 C   0  0  0  0  0  0  0  0  0  0  0  0
  -16.4041  -16.4733    6.7478 C   0  0  0  0  0  0  0  0  0  0  0  0
  -16.2060  -18.8601    5.8926 C   0  0  0  0  0  0  0  0  0  0  0  0
  -16.1651  -15.5884    7.7965 C   0  0  0  0  0  0  0  0  0  0  0  0
  -15.6976  -16.0318    9.1439 C   0  0  0  0  0  0  0  0  0  0  0  0
  -14.8888  -17.7847   10.6727 C   0  0  0  0  0  0  0  0  0  0  0  0
  -17.6327  -19.3132    5.8249 C   0  0  0  0  0  0  0  0  0  0  0  0
  -15.7313  -18.4064    4.5181 C   0  0  0  0  0  0  0  0  0  0  0  0
  -13.5311  -17.3125   10.9026 C   0  0  0  0  0  0  0  0  0  0  0  0
  -15.7669  -17.2658   11.8216 C   0  0  0  0  0  0  0  0  0  0  0  0
M  END
>  <Score>
0.218520

>  <Energy>
-5.966974

>  <Confidence>
0.781480

>  <Binding_Affinity>
0.297187

>  <IC50_nM>
inf

$$$$
ml_pose_17
  PandaDock generated structure

 13  0  0  0  0  0  0  0  0999 V2000
  -15.6841  -18.4336   10.0500 C   0  0  0  0  0  0  0  0  0  0  0  0
  -15.6769  -17.9485    8.6558 C   0  0  0  0  0  0  0  0  0  0  0  0
  -15.7648  -18.7960    7.6171 C   0  0  0  0  0  0  0  0  0  0  0  0
  -15.7004  -16.5696    8.4849 C   0  0  0  0  0  0  0  0  0  0  0  0
  -15.8096  -18.3155    6.3262 C   0  0  0  0  0  0  0  0  0  0  0  0
  -15.7493  -20.2727    7.8662 C   0  0  0  0  0  0  0  0  0  0  0  0
  -15.7498  -16.8966    6.1286 C   0  0  0  0  0  0  0  0  0  0  0  0
  -15.6309  -16.0527    7.2111 C   0  0  0  0  0  0  0  0  0  0  0  0
  -15.4800  -15.4915    9.7665 C   0  0  0  0  0  0  0  0  0  0  0  0
  -17.1892  -20.8906    7.7524 C   0  0  0  0  0  0  0  0  0  0  0  0
  -14.7728  -20.9355    6.9084 C   0  0  0  0  0  0  0  0  0  0  0  0
  -14.2544  -14.9318    9.9484 C   0  0  0  0  0  0  0  0  0  0  0  0
  -16.6377  -14.5654    9.6243 C   0  0  0  0  0  0  0  0  0  0  0  0
M  END
>  <Score>
0.220604

>  <Energy>
-7.679708

>  <Confidence>
0.779396

>  <Binding_Affinity>
0.300022

>  <IC50_nM>
inf

$$$$
ml_pose_26
  PandaDock generated structure

 13  0  0  0  0  0  0  0  0999 V2000
  -15.2981  -16.7589    6.5773 C   0  0  0  0  0  0  0  0  0  0  0  0
  -15.5585  -17.3337    7.6375 C   0  0  0  0  0  0  0  0  0  0  0  0
  -15.5480  -16.7623    8.9531 C   0  0  0  0  0  0  0  0  0  0  0  0
  -15.9542  -18.7014    7.5329 C   0  0  0  0  0  0  0  0  0  0  0  0
  -15.7566  -17.4632   10.0874 C   0  0  0  0  0  0  0  0  0  0  0  0
  -15.1538  -15.4274    9.0218 C   0  0  0  0  0  0  0  0  0  0  0  0
  -16.0778  -18.8191   10.0374 C   0  0  0  0  0  0  0  0  0  0  0  0
  -16.2054  -19.4527    8.7395 C   0  0  0  0  0  0  0  0  0  0  0  0
  -15.9136  -19.3358    6.1039 C   0  0  0  0  0  0  0  0  0  0  0  0
  -16.4133  -14.4385    9.2289 C   0  0  0  0  0  0  0  0  0  0  0  0
  -14.2102  -15.1291   10.2827 C   0  0  0  0  0  0  0  0  0  0  0  0
  -14.7287  -20.3729    6.0714 C   0  0  0  0  0  0  0  0  0  0  0  0
  -17.2817  -20.1050    6.0662 C   0  0  0  0  0  0  0  0  0  0  0  0
M  END
>  <Score>
0.242331

>  <Energy>
-5.500415

>  <Confidence>
0.757669

>  <Binding_Affinity>
0.329571

>  <IC50_nM>
inf

$$$$
ml_pose_29
  PandaDock generated structure

 13  0  0  0  0  0  0  0  0999 V2000
  -16.8607  -16.1770    7.6497 C   0  0  0  0  0  0  0  0  0  0  0  0
  -15.9054  -17.2847    8.1106 C   0  0  0  0  0  0  0  0  0  0  0  0
  -16.5087  -18.5764    7.9407 C   0  0  0  0  0  0  0  0  0  0  0  0
  -14.8044  -16.9714    8.4272 C   0  0  0  0  0  0  0  0  0  0  0  0
  -15.6262  -19.6122    8.4023 C   0  0  0  0  0  0  0  0  0  0  0  0
  -17.8984  -18.9288    7.3402 C   0  0  0  0  0  0  0  0  0  0  0  0
  -14.4701  -19.3516    8.8746 C   0  0  0  0  0  0  0  0  0  0  0  0
  -13.9940  -17.9221    8.8975 C   0  0  0  0  0  0  0  0  0  0  0  0
  -14.2979  -15.6211    8.6008 C   0  0  0  0  0  0  0  0  0  0  0  0
  -17.9270  -19.3332    6.0228 C   0  0  0  0  0  0  0  0  0  0  0  0
  -18.6410  -19.8950    8.2283 C   0  0  0  0  0  0  0  0  0  0  0  0
  -14.2499  -14.9967    9.9663 C   0  0  0  0  0  0  0  0  0  0  0  0
  -12.9164  -15.4297    7.8789 C   0  0  0  0  0  0  0  0  0  0  0  0
M  END
>  <Score>
0.253440

>  <Energy>
-7.099917

>  <Confidence>
0.746560

>  <Binding_Affinity>
0.344679

>  <IC50_nM>
inf

$$$$
ml_pose_27
  PandaDock generated structure

 13  0  0  0  0  0  0  0  0999 V2000
  -15.5804  -15.7908    8.7977 C   0  0  0  0  0  0  0  0  0  0  0  0
  -15.6611  -17.1892    8.3598 C   0  0  0  0  0  0  0  0  0  0  0  0
  -14.7218  -18.0658    8.6750 C   0  0  0  0  0  0  0  0  0  0  0  0
  -16.7629  -17.4817    7.6177 C   0  0  0  0  0  0  0  0  0  0  0  0
  -14.8097  -19.3806    8.2971 C   0  0  0  0  0  0  0  0  0  0  0  0
  -13.4369  -17.6862    9.5152 C   0  0  0  0  0  0  0  0  0  0  0  0
  -15.9198  -19.6784    7.5412 C   0  0  0  0  0  0  0  0  0  0  0  0
  -16.8025  -18.7652    7.1320 C   0  0  0  0  0  0  0  0  0  0  0  0
  -17.7230  -16.5368    7.2688 C   0  0  0  0  0  0  0  0  0  0  0  0
  -13.6364  -18.1437   10.9855 C   0  0  0  0  0  0  0  0  0  0  0  0
  -12.1817  -18.2071    8.8947 C   0  0  0  0  0  0  0  0  0  0  0  0
  -17.7273  -16.1124    5.7189 C   0  0  0  0  0  0  0  0  0  0  0  0
  -19.1364  -17.0622    7.5364 C   0  0  0  0  0  0  0  0  0  0  0  0
M  END
>  <Score>
0.264453

>  <Energy>
-6.587492

>  <Confidence>
0.735547

>  <Binding_Affinity>
0.359656

>  <IC50_nM>
inf

$$$$
ml_pose_28
  PandaDock generated structure

 13  0  0  0  0  0  0  0  0999 V2000
  -16.2479  -17.6718   10.1268 C   0  0  0  0  0  0  0  0  0  0  0  0
  -15.8553  -17.6758    8.8018 C   0  0  0  0  0  0  0  0  0  0  0  0
  -14.5122  -17.6074    8.4529 C   0  0  0  0  0  0  0  0  0  0  0  0
  -16.8837  -17.7992    7.6908 C   0  0  0  0  0  0  0  0  0  0  0  0
  -14.0891  -17.5826    7.1161 C   0  0  0  0  0  0  0  0  0  0  0  0
  -13.4467  -17.3855    9.4380 C   0  0  0  0  0  0  0  0  0  0  0  0
  -15.0954  -17.6997    6.0852 C   0  0  0  0  0  0  0  0  0  0  0  0
  -16.4660  -17.7912    6.4717 C   0  0  0  0  0  0  0  0  0  0  0  0
  -18.3093  -17.8484    8.0442 C   0  0  0  0  0  0  0  0  0  0  0  0
  -12.8043  -18.8148    9.6838 C   0  0  0  0  0  0  0  0  0  0  0  0
  -12.3893  -16.3566    9.0602 C   0  0  0  0  0  0  0  0  0  0  0  0
  -19.0056  -16.6753    7.9123 C   0  0  0  0  0  0  0  0  0  0  0  0
  -18.9951  -19.1916    7.4562 C   0  0  0  0  0  0  0  0  0  0  0  0
M  END
>  <Score>
0.286616

>  <Energy>
-5.273920

>  <Confidence>
0.713384

>  <Binding_Affinity>
0.389797

>  <IC50_nM>
inf

$$$$
ml_pose_8
  PandaDock generated structure

 13  0  0  0  0  0  0  0  0999 V2000
  -14.0998  -16.8901    7.4406 C   0  0  0  0  0  0  0  0  0  0  0  0
  -15.3451  -17.4668    8.0001 C   0  0  0  0  0  0  0  0  0  0  0  0
  -15.1977  -18.7188    8.1865 C   0  0  0  0  0  0  0  0  0  0  0  0
  -16.3487  -16.7245    8.0882 C   0  0  0  0  0  0  0  0  0  0  0  0
  -16.3348  -19.4492    8.8341 C   0  0  0  0  0  0  0  0  0  0  0  0
  -13.9038  -19.5147    8.0775 C   0  0  0  0  0  0  0  0  0  0  0  0
  -17.5067  -18.7371    9.0110 C   0  0  0  0  0  0  0  0  0  0  0  0
  -17.4479  -17.3278    8.7183 C   0  0  0  0  0  0  0  0  0  0  0  0
  -16.4662  -15.2199    7.7971 C   0  0  0  0  0  0  0  0  0  0  0  0
  -13.0067  -19.7540    9.2576 C   0  0  0  0  0  0  0  0  0  0  0  0
  -14.1928  -20.9017    7.3355 C   0  0  0  0  0  0  0  0  0  0  0  0
  -17.2976  -14.9786    6.6001 C   0  0  0  0  0  0  0  0  0  0  0  0
  -16.9522  -14.4168    8.9934 C   0  0  0  0  0  0  0  0  0  0  0  0
M  END
>  <Score>
0.299672

>  <Energy>
-6.261923

>  <Confidence>
0.700328

>  <Binding_Affinity>
0.407553

>  <IC50_nM>
inf

$$$$
