ml_pose_29
  PandaDock generated structure

 13  0  0  0  0  0  0  0  0999 V2000
  -16.8607  -16.1770    7.6497 O   0  0  0  0  0  0  0  0  0  0  0  0
  -15.9054  -17.2847    8.1106 C   0  0  0  0  0  0  0  0  0  0  0  0
  -16.5087  -18.5764    7.9407 C   0  0  0  0  0  0  0  0  0  0  0  0
  -14.8044  -16.9714    8.4272 C   0  0  0  0  0  0  0  0  0  0  0  0
  -15.6262  -19.6122    8.4023 C   0  0  0  0  0  0  0  0  0  0  0  0
  -17.8984  -18.9288    7.3402 C   0  0  0  0  0  0  0  0  0  0  0  0
  -14.4701  -19.3516    8.8746 C   0  0  0  0  0  0  0  0  0  0  0  0
  -13.9940  -17.9221    8.8975 C   0  0  0  0  0  0  0  0  0  0  0  0
  -14.2979  -15.6211    8.6008 C   0  0  0  0  0  0  0  0  0  0  0  0
  -17.9270  -19.3332    6.0228 C   0  0  0  0  0  0  0  0  0  0  0  0
  -18.6410  -19.8950    8.2283 C   0  0  0  0  0  0  0  0  0  0  0  0
  -14.2499  -14.9967    9.9663 C   0  0  0  0  0  0  0  0  0  0  0  0
  -12.9164  -15.4297    7.8789 C   0  0  0  0  0  0  0  0  0  0  0  0
M  END
>  <Score>
0.253440

>  <Energy>
-7.099917

>  <Confidence>
0.746560

>  <Binding_Affinity>
0.344679

>  <IC50_nM>
inf

$$$$
