ml_pose_17
  PandaDock generated structure

 13  0  0  0  0  0  0  0  0999 V2000
  -15.6841  -18.4336   10.0500 O   0  0  0  0  0  0  0  0  0  0  0  0
  -15.6769  -17.9485    8.6558 C   0  0  0  0  0  0  0  0  0  0  0  0
  -15.7648  -18.7960    7.6171 C   0  0  0  0  0  0  0  0  0  0  0  0
  -15.7004  -16.5696    8.4849 C   0  0  0  0  0  0  0  0  0  0  0  0
  -15.8096  -18.3155    6.3262 C   0  0  0  0  0  0  0  0  0  0  0  0
  -15.7493  -20.2727    7.8662 C   0  0  0  0  0  0  0  0  0  0  0  0
  -15.7498  -16.8966    6.1286 C   0  0  0  0  0  0  0  0  0  0  0  0
  -15.6309  -16.0527    7.2111 C   0  0  0  0  0  0  0  0  0  0  0  0
  -15.4800  -15.4915    9.7665 C   0  0  0  0  0  0  0  0  0  0  0  0
  -17.1892  -20.8906    7.7524 C   0  0  0  0  0  0  0  0  0  0  0  0
  -14.7728  -20.9355    6.9084 C   0  0  0  0  0  0  0  0  0  0  0  0
  -14.2544  -14.9318    9.9484 C   0  0  0  0  0  0  0  0  0  0  0  0
  -16.6377  -14.5654    9.6243 C   0  0  0  0  0  0  0  0  0  0  0  0
M  END
>  <Score>
0.220604

>  <Energy>
-7.679708

>  <Confidence>
0.779396

>  <Binding_Affinity>
0.300022

>  <IC50_nM>
inf

$$$$
