ml_pose_9
  PandaDock generated structure

 13  0  0  0  0  0  0  0  0999 V2000
  -15.6399  -16.7886    6.3973 O   0  0  0  0  0  0  0  0  0  0  0  0
  -15.7339  -17.4316    7.7307 C   0  0  0  0  0  0  0  0  0  0  0  0
  -16.8427  -18.0046    8.1168 C   0  0  0  0  0  0  0  0  0  0  0  0
  -14.4956  -17.4578    8.4464 C   0  0  0  0  0  0  0  0  0  0  0  0
  -16.9005  -18.7103    9.3833 C   0  0  0  0  0  0  0  0  0  0  0  0
  -18.0513  -18.0068    7.2245 C   0  0  0  0  0  0  0  0  0  0  0  0
  -15.7735  -18.7835   10.1109 C   0  0  0  0  0  0  0  0  0  0  0  0
  -14.4983  -18.0575    9.6921 C   0  0  0  0  0  0  0  0  0  0  0  0
  -13.3577  -16.7440    8.0373 C   0  0  0  0  0  0  0  0  0  0  0  0
  -18.2720  -19.3430    6.3892 C   0  0  0  0  0  0  0  0  0  0  0  0
  -19.3714  -17.7097    8.1372 C   0  0  0  0  0  0  0  0  0  0  0  0
  -13.0612  -15.4092    8.6164 C   0  0  0  0  0  0  0  0  0  0  0  0
  -12.1019  -17.6535    8.0580 C   0  0  0  0  0  0  0  0  0  0  0  0
M  END
>  <Score>
0.165337

>  <Energy>
-8.615635

>  <Confidence>
0.834663

>  <Binding_Affinity>
0.224859

>  <IC50_nM>
inf

$$$$
