ml_pose_26
  PandaDock generated structure

 13  0  0  0  0  0  0  0  0999 V2000
  -15.2981  -16.7589    6.5773 O   0  0  0  0  0  0  0  0  0  0  0  0
  -15.5585  -17.3337    7.6375 C   0  0  0  0  0  0  0  0  0  0  0  0
  -15.5480  -16.7623    8.9531 C   0  0  0  0  0  0  0  0  0  0  0  0
  -15.9542  -18.7014    7.5329 C   0  0  0  0  0  0  0  0  0  0  0  0
  -15.7566  -17.4632   10.0874 C   0  0  0  0  0  0  0  0  0  0  0  0
  -15.1538  -15.4274    9.0218 C   0  0  0  0  0  0  0  0  0  0  0  0
  -16.0778  -18.8191   10.0374 C   0  0  0  0  0  0  0  0  0  0  0  0
  -16.2054  -19.4527    8.7395 C   0  0  0  0  0  0  0  0  0  0  0  0
  -15.9136  -19.3358    6.1039 C   0  0  0  0  0  0  0  0  0  0  0  0
  -16.4133  -14.4385    9.2289 C   0  0  0  0  0  0  0  0  0  0  0  0
  -14.2102  -15.1291   10.2827 C   0  0  0  0  0  0  0  0  0  0  0  0
  -14.7287  -20.3729    6.0714 C   0  0  0  0  0  0  0  0  0  0  0  0
  -17.2817  -20.1050    6.0662 C   0  0  0  0  0  0  0  0  0  0  0  0
M  END
>  <Score>
0.242331

>  <Energy>
-5.500415

>  <Confidence>
0.757669

>  <Binding_Affinity>
0.329571

>  <IC50_nM>
inf

$$$$
