ml_pose_8
  PandaDock generated structure

 13  0  0  0  0  0  0  0  0999 V2000
  -14.0998  -16.8901    7.4406 O   0  0  0  0  0  0  0  0  0  0  0  0
  -15.3451  -17.4668    8.0001 C   0  0  0  0  0  0  0  0  0  0  0  0
  -15.1977  -18.7188    8.1865 C   0  0  0  0  0  0  0  0  0  0  0  0
  -16.3487  -16.7245    8.0882 C   0  0  0  0  0  0  0  0  0  0  0  0
  -16.3348  -19.4492    8.8341 C   0  0  0  0  0  0  0  0  0  0  0  0
  -13.9038  -19.5147    8.0775 C   0  0  0  0  0  0  0  0  0  0  0  0
  -17.5067  -18.7371    9.0110 C   0  0  0  0  0  0  0  0  0  0  0  0
  -17.4479  -17.3278    8.7183 C   0  0  0  0  0  0  0  0  0  0  0  0
  -16.4662  -15.2199    7.7971 C   0  0  0  0  0  0  0  0  0  0  0  0
  -13.0067  -19.7540    9.2576 C   0  0  0  0  0  0  0  0  0  0  0  0
  -14.1928  -20.9017    7.3355 C   0  0  0  0  0  0  0  0  0  0  0  0
  -17.2976  -14.9786    6.6001 C   0  0  0  0  0  0  0  0  0  0  0  0
  -16.9522  -14.4168    8.9934 C   0  0  0  0  0  0  0  0  0  0  0  0
M  END
>  <Score>
0.299672

>  <Energy>
-6.261923

>  <Confidence>
0.700328

>  <Binding_Affinity>
0.407553

>  <IC50_nM>
inf

$$$$
