ml_pose_4
  PandaDock generated structure

 13 13  0  0  0  0  0  0  0  0999 V2000
  -15.2246  -17.9833   10.0368 O   0  0  0  0  0  0  0  0  0  0  0  0
  -15.5625  -17.7781    8.6928 C   0  0  0  0  0  0  0  0  0  0  0  0
  -16.7997  -17.2135    8.4230 C   0  0  0  0  0  0  0  0  0  0  0  0
  -14.7296  -18.1951    7.7234 C   0  0  0  0  0  0  0  0  0  0  0  0
  -17.1466  -17.0661    7.0911 C   0  0  0  0  0  0  0  0  0  0  0  0
  -17.7101  -16.8111    9.5259 C   0  0  0  0  0  0  0  0  0  0  0  0
  -16.2888  -17.4377    6.0948 C   0  0  0  0  0  0  0  0  0  0  0  0
  -14.9437  -17.9795    6.4984 C   0  0  0  0  0  0  0  0  0  0  0  0
  -13.3713  -18.7172    8.1013 C   0  0  0  0  0  0  0  0  0  0  0  0
  -17.7545  -15.4207    9.7689 C   0  0  0  0  0  0  0  0  0  0  0  0
  -19.2201  -17.3178    9.0599 C   0  0  0  0  0  0  0  0  0  0  0  0
  -13.1827  -20.2572    7.9327 C   0  0  0  0  0  0  0  0  0  0  0  0
  -12.1659  -17.9226    7.3910 C   0  0  0  0  0  0  0  0  0  0  0  0
  1  2  1  0  0  0  0
  2  3  1  0  0  0  0
  2  4  1  0  0  0  0
  3  5  1  0  0  0  0
  3  6  1  0  0  0  0
  4  8  1  0  0  0  0
  4  9  1  0  0  0  0
  5  7  1  0  0  0  0
  6 10  1  0  0  0  0
  6 11  1  0  0  0  0
  7  8  1  0  0  0  0
  9 12  1  0  0  0  0
  9 13  1  0  0  0  0
M  END
>  <Score>
0.128634

>  <Energy>
-7.017851

>  <Confidence>
0.871366

>  <Binding_Affinity>
-6.876421

>  <IC50_nM>
9099.8

$$$$
ml_pose_12
  PandaDock generated structure

 13 13  0  0  0  0  0  0  0  0999 V2000
  -16.2031  -15.8678    8.8888 O   0  0  0  0  0  0  0  0  0  0  0  0
  -15.8156  -17.1317    8.3930 C   0  0  0  0  0  0  0  0  0  0  0  0
  -16.5144  -17.6924    7.2066 C   0  0  0  0  0  0  0  0  0  0  0  0
  -14.9498  -17.8925    9.0160 C   0  0  0  0  0  0  0  0  0  0  0  0
  -16.1000  -19.0200    6.7764 C   0  0  0  0  0  0  0  0  0  0  0  0
  -17.5617  -16.9063    6.5072 C   0  0  0  0  0  0  0  0  0  0  0  0
  -15.1574  -19.7259    7.5140 C   0  0  0  0  0  0  0  0  0  0  0  0
  -14.4889  -19.1722    8.7251 C   0  0  0  0  0  0  0  0  0  0  0  0
  -14.2468  -17.2924   10.3369 C   0  0  0  0  0  0  0  0  0  0  0  0
  -16.9225  -16.3797    5.2242 C   0  0  0  0  0  0  0  0  0  0  0  0
  -18.5213  -17.8068    6.0230 C   0  0  0  0  0  0  0  0  0  0  0  0
  -14.7945  -17.8554   11.6080 C   0  0  0  0  0  0  0  0  0  0  0  0
  -12.8241  -17.3569   10.1209 C   0  0  0  0  0  0  0  0  0  0  0  0
  1  2  1  0  0  0  0
  2  3  1  0  0  0  0
  2  4  1  0  0  0  0
  3  5  1  0  0  0  0
  3  6  1  0  0  0  0
  4  8  1  0  0  0  0
  4  9  1  0  0  0  0
  5  7  1  0  0  0  0
  6 10  1  0  0  0  0
  6 11  1  0  0  0  0
  7  8  1  0  0  0  0
  9 12  1  0  0  0  0
  9 13  1  0  0  0  0
M  END
>  <Score>
0.130982

>  <Energy>
-5.808498

>  <Confidence>
0.869018

>  <Binding_Affinity>
-6.484409

>  <IC50_nM>
17636.3

$$$$
ml_pose_9
  PandaDock generated structure

 13 13  0  0  0  0  0  0  0  0999 V2000
  -14.7719  -17.7549    6.4505 O   0  0  0  0  0  0  0  0  0  0  0  0
  -15.4965  -17.6376    7.6203 C   0  0  0  0  0  0  0  0  0  0  0  0
  -14.8556  -17.0649    8.7459 C   0  0  0  0  0  0  0  0  0  0  0  0
  -16.6863  -18.3560    7.8991 C   0  0  0  0  0  0  0  0  0  0  0  0
  -15.3746  -17.0671    9.9606 C   0  0  0  0  0  0  0  0  0  0  0  0
  -13.5075  -16.3461    8.4804 C   0  0  0  0  0  0  0  0  0  0  0  0
  -16.5656  -17.7403   10.1180 C   0  0  0  0  0  0  0  0  0  0  0  0
  -17.2672  -18.3683    9.0806 C   0  0  0  0  0  0  0  0  0  0  0  0
  -17.3611  -19.0981    6.7712 C   0  0  0  0  0  0  0  0  0  0  0  0
  -13.6765  -14.8492    8.1929 C   0  0  0  0  0  0  0  0  0  0  0  0
  -12.5449  -16.6660    9.6878 C   0  0  0  0  0  0  0  0  0  0  0  0
  -17.1643  -20.5747    6.8164 C   0  0  0  0  0  0  0  0  0  0  0  0
  -18.8280  -18.5768    6.5163 C   0  0  0  0  0  0  0  0  0  0  0  0
  1  2  1  0  0  0  0
  2  3  1  0  0  0  0
  2  4  1  0  0  0  0
  3  5  1  0  0  0  0
  3  6  1  0  0  0  0
  4  8  1  0  0  0  0
  4  9  1  0  0  0  0
  5  7  1  0  0  0  0
  6 10  1  0  0  0  0
  6 11  1  0  0  0  0
  7  8  1  0  0  0  0
  9 12  1  0  0  0  0
  9 13  1  0  0  0  0
M  END
>  <Score>
0.165656

>  <Energy>
-7.299624

>  <Confidence>
0.834344

>  <Binding_Affinity>
-3.673142

>  <IC50_nM>
2029042.7

$$$$
ml_pose_29
  PandaDock generated structure

 13 13  0  0  0  0  0  0  0  0999 V2000
  -16.4108  -18.2369    9.9538 O   0  0  0  0  0  0  0  0  0  0  0  0
  -15.9268  -17.8804    8.7286 C   0  0  0  0  0  0  0  0  0  0  0  0
  -16.4177  -18.3283    7.5058 C   0  0  0  0  0  0  0  0  0  0  0  0
  -14.8359  -17.1066    8.6414 C   0  0  0  0  0  0  0  0  0  0  0  0
  -16.0298  -17.9125    6.3320 C   0  0  0  0  0  0  0  0  0  0  0  0
  -17.8815  -19.1044    7.5444 C   0  0  0  0  0  0  0  0  0  0  0  0
  -14.8873  -17.0495    6.1655 C   0  0  0  0  0  0  0  0  0  0  0  0
  -14.2061  -16.7022    7.4294 C   0  0  0  0  0  0  0  0  0  0  0  0
  -14.1500  -16.6232    9.9378 C   0  0  0  0  0  0  0  0  0  0  0  0
  -19.0178  -18.2604    7.4669 C   0  0  0  0  0  0  0  0  0  0  0  0
  -17.7711  -20.2416    6.6064 C   0  0  0  0  0  0  0  0  0  0  0  0
  -12.7829  -17.4417   10.1060 C   0  0  0  0  0  0  0  0  0  0  0  0
  -13.7825  -15.2122    9.9220 C   0  0  0  0  0  0  0  0  0  0  0  0
  1  2  1  0  0  0  0
  2  3  1  0  0  0  0
  2  4  1  0  0  0  0
  3  5  1  0  0  0  0
  3  6  1  0  0  0  0
  4  8  1  0  0  0  0
  4  9  1  0  0  0  0
  5  7  1  0  0  0  0
  6 10  1  0  0  0  0
  6 11  1  0  0  0  0
  7  8  1  0  0  0  0
  9 12  1  0  0  0  0
  9 13  1  0  0  0  0
M  END
>  <Score>
0.182939

>  <Energy>
-6.109280

>  <Confidence>
0.817061

>  <Binding_Affinity>
-3.000000

>  <IC50_nM>
6320605.5

$$$$
ml_pose_0
  PandaDock generated structure

 13 13  0  0  0  0  0  0  0  0999 V2000
  -15.1758  -16.1013    9.2732 O   0  0  0  0  0  0  0  0  0  0  0  0
  -15.5179  -17.1572    8.4949 C   0  0  0  0  0  0  0  0  0  0  0  0
  -15.6881  -18.4859    9.1690 C   0  0  0  0  0  0  0  0  0  0  0  0
  -15.6638  -17.1727    7.0179 C   0  0  0  0  0  0  0  0  0  0  0  0
  -16.1983  -19.5286    8.3867 C   0  0  0  0  0  0  0  0  0  0  0  0
  -15.7016  -18.5239   10.7134 C   0  0  0  0  0  0  0  0  0  0  0  0
  -16.3699  -19.3931    6.9664 C   0  0  0  0  0  0  0  0  0  0  0  0
  -15.8833  -18.2504    6.3313 C   0  0  0  0  0  0  0  0  0  0  0  0
  -15.2633  -15.8698    6.4489 C   0  0  0  0  0  0  0  0  0  0  0  0
  -17.0428  -18.4194   11.3120 C   0  0  0  0  0  0  0  0  0  0  0  0
  -15.1078  -19.7699   10.9705 C   0  0  0  0  0  0  0  0  0  0  0  0
  -14.0142  -15.9228    5.7195 C   0  0  0  0  0  0  0  0  0  0  0  0
  -16.4732  -15.5051    5.5363 C   0  0  0  0  0  0  0  0  0  0  0  0
  1  2  1  0  0  0  0
  2  3  1  0  0  0  0
  2  4  1  0  0  0  0
  3  5  1  0  0  0  0
  3  6  1  0  0  0  0
  4  8  1  0  0  0  0
  4  9  1  0  0  0  0
  5  7  1  0  0  0  0
  6 10  1  0  0  0  0
  6 11  1  0  0  0  0
  7  8  1  0  0  0  0
  9 12  1  0  0  0  0
  9 13  1  0  0  0  0
M  END
>  <Score>
0.188783

>  <Energy>
-5.436854

>  <Confidence>
0.811217

>  <Binding_Affinity>
-3.000000

>  <IC50_nM>
6320605.5

$$$$
ml_pose_7
  PandaDock generated structure

 13 13  0  0  0  0  0  0  0  0999 V2000
  -13.8800  -17.8911    7.4494 O   0  0  0  0  0  0  0  0  0  0  0  0
  -15.2243  -17.8628    7.9892 C   0  0  0  0  0  0  0  0  0  0  0  0
  -15.3665  -16.8040    9.0546 C   0  0  0  0  0  0  0  0  0  0  0  0
  -16.1753  -18.5427    7.4103 C   0  0  0  0  0  0  0  0  0  0  0  0
  -16.5434  -16.7846    9.4685 C   0  0  0  0  0  0  0  0  0  0  0  0
  -14.1644  -16.1303    9.5787 C   0  0  0  0  0  0  0  0  0  0  0  0
  -17.7375  -17.4767    9.0592 C   0  0  0  0  0  0  0  0  0  0  0  0
  -17.5041  -18.2690    7.9438 C   0  0  0  0  0  0  0  0  0  0  0  0
  -16.0300  -19.4027    6.3144 C   0  0  0  0  0  0  0  0  0  0  0  0
  -14.0658  -14.7047    8.9938 C   0  0  0  0  0  0  0  0  0  0  0  0
  -14.2811  -16.0755   11.1060 C   0  0  0  0  0  0  0  0  0  0  0  0
  -16.0750  -20.9763    6.8210 C   0  0  0  0  0  0  0  0  0  0  0  0
  -17.0526  -19.1796    5.1510 C   0  0  0  0  0  0  0  0  0  0  0  0
  1  2  1  0  0  0  0
  2  3  1  0  0  0  0
  2  4  1  0  0  0  0
  3  5  1  0  0  0  0
  3  6  1  0  0  0  0
  4  8  1  0  0  0  0
  4  9  1  0  0  0  0
  5  7  1  0  0  0  0
  6 10  1  0  0  0  0
  6 11  1  0  0  0  0
  7  8  1  0  0  0  0
  9 12  1  0  0  0  0
  9 13  1  0  0  0  0
M  END
>  <Score>
0.194957

>  <Energy>
-7.054154

>  <Confidence>
0.805043

>  <Binding_Affinity>
-3.000000

>  <IC50_nM>
6320605.5

$$$$
ml_pose_1
  PandaDock generated structure

 13 13  0  0  0  0  0  0  0  0999 V2000
  -15.3124  -15.8965    7.4490 O   0  0  0  0  0  0  0  0  0  0  0  0
  -15.5553  -17.2139    7.9472 C   0  0  0  0  0  0  0  0  0  0  0  0
  -16.3593  -18.0369    7.2466 C   0  0  0  0  0  0  0  0  0  0  0  0
  -15.1232  -17.4967    9.2512 C   0  0  0  0  0  0  0  0  0  0  0  0
  -16.7188  -19.2390    7.8320 C   0  0  0  0  0  0  0  0  0  0  0  0
  -16.9148  -17.7315    5.8904 C   0  0  0  0  0  0  0  0  0  0  0  0
  -16.2045  -19.6085    9.0339 C   0  0  0  0  0  0  0  0  0  0  0  0
  -15.4698  -18.7250    9.6631 C   0  0  0  0  0  0  0  0  0  0  0  0
  -14.1544  -16.6065   10.0155 C   0  0  0  0  0  0  0  0  0  0  0  0
  -16.0718  -18.2944    4.7155 C   0  0  0  0  0  0  0  0  0  0  0  0
  -18.4006  -18.0417    5.7998 C   0  0  0  0  0  0  0  0  0  0  0  0
  -14.8913  -15.9561   11.1289 C   0  0  0  0  0  0  0  0  0  0  0  0
  -12.9238  -17.2533   10.3669 C   0  0  0  0  0  0  0  0  0  0  0  0
  1  2  1  0  0  0  0
  2  3  1  0  0  0  0
  2  4  1  0  0  0  0
  3  5  1  0  0  0  0
  3  6  1  0  0  0  0
  4  8  1  0  0  0  0
  4  9  1  0  0  0  0
  5  7  1  0  0  0  0
  6 10  1  0  0  0  0
  6 11  1  0  0  0  0
  7  8  1  0  0  0  0
  9 12  1  0  0  0  0
  9 13  1  0  0  0  0
M  END
>  <Score>
0.228906

>  <Energy>
-7.160085

>  <Confidence>
0.771094

>  <Binding_Affinity>
-3.000000

>  <IC50_nM>
6320605.5

$$$$
ml_pose_16
  PandaDock generated structure

 13 13  0  0  0  0  0  0  0  0999 V2000
  -15.2814  -16.0159    7.3095 O   0  0  0  0  0  0  0  0  0  0  0  0
  -15.6328  -17.2116    7.9317 C   0  0  0  0  0  0  0  0  0  0  0  0
  -14.6110  -18.2069    8.0274 C   0  0  0  0  0  0  0  0  0  0  0  0
  -16.7968  -17.3178    8.4449 C   0  0  0  0  0  0  0  0  0  0  0  0
  -14.9685  -19.4953    8.5072 C   0  0  0  0  0  0  0  0  0  0  0  0
  -13.2113  -17.9741    7.3707 C   0  0  0  0  0  0  0  0  0  0  0  0
  -16.2210  -19.6097    9.0779 C   0  0  0  0  0  0  0  0  0  0  0  0
  -17.1455  -18.6647    9.0061 C   0  0  0  0  0  0  0  0  0  0  0  0
  -17.8523  -16.2629    8.3797 C   0  0  0  0  0  0  0  0  0  0  0  0
  -12.1403  -17.6040    8.5921 C   0  0  0  0  0  0  0  0  0  0  0  0
  -12.7770  -19.2081    6.5833 C   0  0  0  0  0  0  0  0  0  0  0  0
  -18.9674  -16.4826    7.3502 C   0  0  0  0  0  0  0  0  0  0  0  0
  -18.4946  -16.0464    9.7593 C   0  0  0  0  0  0  0  0  0  0  0  0
  1  2  1  0  0  0  0
  2  3  1  0  0  0  0
  2  4  1  0  0  0  0
  3  5  1  0  0  0  0
  3  6  1  0  0  0  0
  4  8  1  0  0  0  0
  4  9  1  0  0  0  0
  5  7  1  0  0  0  0
  6 10  1  0  0  0  0
  6 11  1  0  0  0  0
  7  8  1  0  0  0  0
  9 12  1  0  0  0  0
  9 13  1  0  0  0  0
M  END
>  <Score>
0.229660

>  <Energy>
-6.524439

>  <Confidence>
0.770340

>  <Binding_Affinity>
-3.000000

>  <IC50_nM>
6320605.5

$$$$
ml_pose_5
  PandaDock generated structure

 13 13  0  0  0  0  0  0  0  0999 V2000
  -16.1595  -19.2045    9.3130 O   0  0  0  0  0  0  0  0  0  0  0  0
  -15.9449  -18.1588    8.4954 C   0  0  0  0  0  0  0  0  0  0  0  0
  -16.0806  -18.3031    7.1384 C   0  0  0  0  0  0  0  0  0  0  0  0
  -15.3190  -17.0487    9.0443 C   0  0  0  0  0  0  0  0  0  0  0  0
  -15.7703  -17.1118    6.3550 C   0  0  0  0  0  0  0  0  0  0  0  0
  -16.6653  -19.4509    6.5135 C   0  0  0  0  0  0  0  0  0  0  0  0
  -14.9810  -15.9521    6.9051 C   0  0  0  0  0  0  0  0  0  0  0  0
  -14.8605  -15.8697    8.2783 C   0  0  0  0  0  0  0  0  0  0  0  0
  -14.9437  -16.9966   10.6529 C   0  0  0  0  0  0  0  0  0  0  0  0
  -18.2537  -19.2040    6.3568 C   0  0  0  0  0  0  0  0  0  0  0  0
  -16.0586  -19.8578    5.2600 C   0  0  0  0  0  0  0  0  0  0  0  0
  -13.5119  -17.1910   10.8766 C   0  0  0  0  0  0  0  0  0  0  0  0
  -15.5511  -15.7510   11.1506 C   0  0  0  0  0  0  0  0  0  0  0  0
  1  2  1  0  0  0  0
  2  3  1  0  0  0  0
  2  4  1  0  0  0  0
  3  5  1  0  0  0  0
  3  6  1  0  0  0  0
  4  8  1  0  0  0  0
  4  9  1  0  0  0  0
  5  7  1  0  0  0  0
  6 10  1  0  0  0  0
  6 11  1  0  0  0  0
  7  8  1  0  0  0  0
  9 12  1  0  0  0  0
  9 13  1  0  0  0  0
M  END
>  <Score>
0.293105

>  <Energy>
-6.894561

>  <Confidence>
0.706895

>  <Binding_Affinity>
-3.000000

>  <IC50_nM>
6320605.5

$$$$
ml_pose_8
  PandaDock generated structure

 13 13  0  0  0  0  0  0  0  0999 V2000
  -17.5843  -18.2954    8.1549 O   0  0  0  0  0  0  0  0  0  0  0  0
  -16.2678  -17.8915    8.0728 C   0  0  0  0  0  0  0  0  0  0  0  0
  -15.3965  -18.2815    7.1717 C   0  0  0  0  0  0  0  0  0  0  0  0
  -15.8148  -17.1405    9.2788 C   0  0  0  0  0  0  0  0  0  0  0  0
  -13.9802  -17.8410    7.2033 C   0  0  0  0  0  0  0  0  0  0  0  0
  -15.6252  -19.0654    6.0090 C   0  0  0  0  0  0  0  0  0  0  0  0
  -13.6752  -16.9851    8.2364 C   0  0  0  0  0  0  0  0  0  0  0  0
  -14.5446  -16.7353    9.2801 C   0  0  0  0  0  0  0  0  0  0  0  0
  -16.9054  -16.6937   10.2904 C   0  0  0  0  0  0  0  0  0  0  0  0
  -16.1147  -18.4048    4.7862 C   0  0  0  0  0  0  0  0  0  0  0  0
  -14.7388  -20.1494    5.8366 C   0  0  0  0  0  0  0  0  0  0  0  0
  -16.5310  -17.4885   11.5811 C   0  0  0  0  0  0  0  0  0  0  0  0
  -16.9215  -15.1281   10.4387 C   0  0  0  0  0  0  0  0  0  0  0  0
  1  2  1  0  0  0  0
  2  3  1  0  0  0  0
  2  4  1  0  0  0  0
  3  5  1  0  0  0  0
  3  6  1  0  0  0  0
  4  8  1  0  0  0  0
  4  9  1  0  0  0  0
  5  7  1  0  0  0  0
  6 10  1  0  0  0  0
  6 11  1  0  0  0  0
  7  8  1  0  0  0  0
  9 12  1  0  0  0  0
  9 13  1  0  0  0  0
M  END
>  <Score>
0.294267

>  <Energy>
-6.323737

>  <Confidence>
0.705733

>  <Binding_Affinity>
-3.000000

>  <IC50_nM>
6320605.5

$$$$
