ml_pose_5
  PandaDock generated structure

 13 13  0  0  0  0  0  0  0  0999 V2000
  -16.1595  -19.2045    9.3130 O   0  0  0  0  0  0  0  0  0  0  0  0
  -15.9449  -18.1588    8.4954 C   0  0  0  0  0  0  0  0  0  0  0  0
  -16.0806  -18.3031    7.1384 C   0  0  0  0  0  0  0  0  0  0  0  0
  -15.3190  -17.0487    9.0443 C   0  0  0  0  0  0  0  0  0  0  0  0
  -15.7703  -17.1118    6.3550 C   0  0  0  0  0  0  0  0  0  0  0  0
  -16.6653  -19.4509    6.5135 C   0  0  0  0  0  0  0  0  0  0  0  0
  -14.9810  -15.9521    6.9051 C   0  0  0  0  0  0  0  0  0  0  0  0
  -14.8605  -15.8697    8.2783 C   0  0  0  0  0  0  0  0  0  0  0  0
  -14.9437  -16.9966   10.6529 C   0  0  0  0  0  0  0  0  0  0  0  0
  -18.2537  -19.2040    6.3568 C   0  0  0  0  0  0  0  0  0  0  0  0
  -16.0586  -19.8578    5.2600 C   0  0  0  0  0  0  0  0  0  0  0  0
  -13.5119  -17.1910   10.8766 C   0  0  0  0  0  0  0  0  0  0  0  0
  -15.5511  -15.7510   11.1506 C   0  0  0  0  0  0  0  0  0  0  0  0
  1  2  1  0  0  0  0
  2  3  1  0  0  0  0
  2  4  1  0  0  0  0
  3  5  1  0  0  0  0
  3  6  1  0  0  0  0
  4  8  1  0  0  0  0
  4  9  1  0  0  0  0
  5  7  1  0  0  0  0
  6 10  1  0  0  0  0
  6 11  1  0  0  0  0
  7  8  1  0  0  0  0
  9 12  1  0  0  0  0
  9 13  1  0  0  0  0
M  END
>  <Score>
0.293105

>  <Energy>
-6.894561

>  <Confidence>
0.706895

>  <Binding_Affinity>
-3.172017

>  <IC50_nM>
4727771.2

$$$$
