ml_pose_9
  PandaDock generated structure

 13 13  0  0  0  0  0  0  0  0999 V2000
  -14.7719  -17.7549    6.4505 O   0  0  0  0  0  0  0  0  0  0  0  0
  -15.4965  -17.6376    7.6203 C   0  0  0  0  0  0  0  0  0  0  0  0
  -14.8556  -17.0649    8.7459 C   0  0  0  0  0  0  0  0  0  0  0  0
  -16.6863  -18.3560    7.8991 C   0  0  0  0  0  0  0  0  0  0  0  0
  -15.3746  -17.0671    9.9606 C   0  0  0  0  0  0  0  0  0  0  0  0
  -13.5075  -16.3461    8.4804 C   0  0  0  0  0  0  0  0  0  0  0  0
  -16.5656  -17.7403   10.1180 C   0  0  0  0  0  0  0  0  0  0  0  0
  -17.2672  -18.3683    9.0806 C   0  0  0  0  0  0  0  0  0  0  0  0
  -17.3611  -19.0981    6.7712 C   0  0  0  0  0  0  0  0  0  0  0  0
  -13.6765  -14.8492    8.1929 C   0  0  0  0  0  0  0  0  0  0  0  0
  -12.5449  -16.6660    9.6878 C   0  0  0  0  0  0  0  0  0  0  0  0
  -17.1643  -20.5747    6.8164 C   0  0  0  0  0  0  0  0  0  0  0  0
  -18.8280  -18.5768    6.5163 C   0  0  0  0  0  0  0  0  0  0  0  0
  1  2  1  0  0  0  0
  2  3  1  0  0  0  0
  2  4  1  0  0  0  0
  3  5  1  0  0  0  0
  3  6  1  0  0  0  0
  4  8  1  0  0  0  0
  4  9  1  0  0  0  0
  5  7  1  0  0  0  0
  6 10  1  0  0  0  0
  6 11  1  0  0  0  0
  7  8  1  0  0  0  0
  9 12  1  0  0  0  0
  9 13  1  0  0  0  0
M  END
>  <Score>
0.165656

>  <Energy>
-7.299624

>  <Confidence>
0.834344

>  <Binding_Affinity>
-4.775085

>  <IC50_nM>
315848.3

$$$$
