ml_pose_0
  PandaDock generated structure

 13 13  0  0  0  0  0  0  0  0999 V2000
  -15.1758  -16.1013    9.2732 O   0  0  0  0  0  0  0  0  0  0  0  0
  -15.5179  -17.1572    8.4949 C   0  0  0  0  0  0  0  0  0  0  0  0
  -15.6881  -18.4859    9.1690 C   0  0  0  0  0  0  0  0  0  0  0  0
  -15.6638  -17.1727    7.0179 C   0  0  0  0  0  0  0  0  0  0  0  0
  -16.1983  -19.5286    8.3867 C   0  0  0  0  0  0  0  0  0  0  0  0
  -15.7016  -18.5239   10.7134 C   0  0  0  0  0  0  0  0  0  0  0  0
  -16.3699  -19.3931    6.9664 C   0  0  0  0  0  0  0  0  0  0  0  0
  -15.8833  -18.2504    6.3313 C   0  0  0  0  0  0  0  0  0  0  0  0
  -15.2633  -15.8698    6.4489 C   0  0  0  0  0  0  0  0  0  0  0  0
  -17.0428  -18.4194   11.3120 C   0  0  0  0  0  0  0  0  0  0  0  0
  -15.1078  -19.7699   10.9705 C   0  0  0  0  0  0  0  0  0  0  0  0
  -14.0142  -15.9228    5.7195 C   0  0  0  0  0  0  0  0  0  0  0  0
  -16.4732  -15.5051    5.5363 C   0  0  0  0  0  0  0  0  0  0  0  0
  1  2  1  0  0  0  0
  2  3  1  0  0  0  0
  2  4  1  0  0  0  0
  3  5  1  0  0  0  0
  3  6  1  0  0  0  0
  4  8  1  0  0  0  0
  4  9  1  0  0  0  0
  5  7  1  0  0  0  0
  6 10  1  0  0  0  0
  6 11  1  0  0  0  0
  7  8  1  0  0  0  0
  9 12  1  0  0  0  0
  9 13  1  0  0  0  0
M  END
>  <Score>
0.188783

>  <Energy>
-5.436854

>  <Confidence>
0.811217

>  <Binding_Affinity>
-3.000000

>  <IC50_nM>
6320605.5

$$$$
