ml_pose_8
  PandaDock generated structure

 13 13  0  0  0  0  0  0  0  0999 V2000
  -17.5843  -18.2954    8.1549 O   0  0  0  0  0  0  0  0  0  0  0  0
  -16.2678  -17.8915    8.0728 C   0  0  0  0  0  0  0  0  0  0  0  0
  -15.3965  -18.2815    7.1717 C   0  0  0  0  0  0  0  0  0  0  0  0
  -15.8148  -17.1405    9.2788 C   0  0  0  0  0  0  0  0  0  0  0  0
  -13.9802  -17.8410    7.2033 C   0  0  0  0  0  0  0  0  0  0  0  0
  -15.6252  -19.0654    6.0090 C   0  0  0  0  0  0  0  0  0  0  0  0
  -13.6752  -16.9851    8.2364 C   0  0  0  0  0  0  0  0  0  0  0  0
  -14.5446  -16.7353    9.2801 C   0  0  0  0  0  0  0  0  0  0  0  0
  -16.9054  -16.6937   10.2904 C   0  0  0  0  0  0  0  0  0  0  0  0
  -16.1147  -18.4048    4.7862 C   0  0  0  0  0  0  0  0  0  0  0  0
  -14.7388  -20.1494    5.8366 C   0  0  0  0  0  0  0  0  0  0  0  0
  -16.5310  -17.4885   11.5811 C   0  0  0  0  0  0  0  0  0  0  0  0
  -16.9215  -15.1281   10.4387 C   0  0  0  0  0  0  0  0  0  0  0  0
  1  2  1  0  0  0  0
  2  3  1  0  0  0  0
  2  4  1  0  0  0  0
  3  5  1  0  0  0  0
  3  6  1  0  0  0  0
  4  8  1  0  0  0  0
  4  9  1  0  0  0  0
  5  7  1  0  0  0  0
  6 10  1  0  0  0  0
  6 11  1  0  0  0  0
  7  8  1  0  0  0  0
  9 12  1  0  0  0  0
  9 13  1  0  0  0  0
M  END
>  <Score>
0.294267

>  <Energy>
-6.323737

>  <Confidence>
0.705733

>  <Binding_Affinity>
-3.059014

>  <IC50_nM>
5721323.7

$$$$
