ml_pose_12
  PandaDock generated structure

 13 13  0  0  0  0  0  0  0  0999 V2000
  -16.2031  -15.8678    8.8888 O   0  0  0  0  0  0  0  0  0  0  0  0
  -15.8156  -17.1317    8.3930 C   0  0  0  0  0  0  0  0  0  0  0  0
  -16.5144  -17.6924    7.2066 C   0  0  0  0  0  0  0  0  0  0  0  0
  -14.9498  -17.8925    9.0160 C   0  0  0  0  0  0  0  0  0  0  0  0
  -16.1000  -19.0200    6.7764 C   0  0  0  0  0  0  0  0  0  0  0  0
  -17.5617  -16.9063    6.5072 C   0  0  0  0  0  0  0  0  0  0  0  0
  -15.1574  -19.7259    7.5140 C   0  0  0  0  0  0  0  0  0  0  0  0
  -14.4889  -19.1722    8.7251 C   0  0  0  0  0  0  0  0  0  0  0  0
  -14.2468  -17.2924   10.3369 C   0  0  0  0  0  0  0  0  0  0  0  0
  -16.9225  -16.3797    5.2242 C   0  0  0  0  0  0  0  0  0  0  0  0
  -18.5213  -17.8068    6.0230 C   0  0  0  0  0  0  0  0  0  0  0  0
  -14.7945  -17.8554   11.6080 C   0  0  0  0  0  0  0  0  0  0  0  0
  -12.8241  -17.3569   10.1209 C   0  0  0  0  0  0  0  0  0  0  0  0
  1  2  1  0  0  0  0
  2  3  1  0  0  0  0
  2  4  1  0  0  0  0
  3  5  1  0  0  0  0
  3  6  1  0  0  0  0
  4  8  1  0  0  0  0
  4  9  1  0  0  0  0
  5  7  1  0  0  0  0
  6 10  1  0  0  0  0
  6 11  1  0  0  0  0
  7  8  1  0  0  0  0
  9 12  1  0  0  0  0
  9 13  1  0  0  0  0
M  END
>  <Score>
0.130982

>  <Energy>
-5.808498

>  <Confidence>
0.869018

>  <Binding_Affinity>
-8.429731

>  <IC50_nM>
661.2

$$$$
