ml_pose_36
  PandaDock generated structure

 13 13  0  0  0  0  0  0  0  0999 V2000
  -14.3960  -18.0037    6.7994 O   0  0  0  0  0  0  0  0  0  0  0  0
  -15.2858  -17.8724    7.7812 C   0  0  0  0  0  0  0  0  0  0  0  0
  -16.6714  -18.0208    7.3984 C   0  0  0  0  0  0  0  0  0  0  0  0
  -14.9443  -17.3531    9.0162 C   0  0  0  0  0  0  0  0  0  0  0  0
  -17.5390  -17.7519    8.5154 C   0  0  0  0  0  0  0  0  0  0  0  0
  -17.0380  -18.5115    6.1002 C   0  0  0  0  0  0  0  0  0  0  0  0
  -17.1281  -17.3104    9.7453 C   0  0  0  0  0  0  0  0  0  0  0  0
  -15.8506  -17.0020   10.0757 C   0  0  0  0  0  0  0  0  0  0  0  0
  -13.3603  -17.0964    9.1897 C   0  0  0  0  0  0  0  0  0  0  0  0
  -17.3952  -19.9865    6.1742 C   0  0  0  0  0  0  0  0  0  0  0  0
  -18.2689  -17.7817    5.5818 C   0  0  0  0  0  0  0  0  0  0  0  0
  -13.1746  -15.6482    9.3933 C   0  0  0  0  0  0  0  0  0  0  0  0
  -13.0480  -17.7616   10.5691 C   0  0  0  0  0  0  0  0  0  0  0  0
  1  2  1  0  0  0  0
  2  3  1  0  0  0  0
  2  4  1  0  0  0  0
  3  5  1  0  0  0  0
  3  6  1  0  0  0  0
  4  8  1  0  0  0  0
  4  9  1  0  0  0  0
  5  7  1  0  0  0  0
  6 10  1  0  0  0  0
  6 11  1  0  0  0  0
  7  8  1  0  0  0  0
  9 12  1  0  0  0  0
  9 13  1  0  0  0  0
M  END
>  <Score>
0.105691

>  <Energy>
-7.340735

>  <Confidence>
0.894309

>  <Binding_Affinity>
-12.386182

>  <IC50_nM>
0.8

$$$$
ml_pose_5
  PandaDock generated structure

 13 13  0  0  0  0  0  0  0  0999 V2000
  -13.7983  -17.3843    7.7914 O   0  0  0  0  0  0  0  0  0  0  0  0
  -15.0985  -17.5238    8.1496 C   0  0  0  0  0  0  0  0  0  0  0  0
  -15.8686  -16.5758    8.7226 C   0  0  0  0  0  0  0  0  0  0  0  0
  -15.7417  -18.7690    7.6830 C   0  0  0  0  0  0  0  0  0  0  0  0
  -17.1656  -16.8781    8.9747 C   0  0  0  0  0  0  0  0  0  0  0  0
  -15.1250  -15.3541    9.1821 C   0  0  0  0  0  0  0  0  0  0  0  0
  -17.7342  -18.0025    8.5631 C   0  0  0  0  0  0  0  0  0  0  0  0
  -17.0825  -19.0627    7.9892 C   0  0  0  0  0  0  0  0  0  0  0  0
  -14.9097  -19.8802    7.0174 C   0  0  0  0  0  0  0  0  0  0  0  0
  -15.6095  -14.1891    8.0777 C   0  0  0  0  0  0  0  0  0  0  0  0
  -15.6839  -14.9352   10.4923 C   0  0  0  0  0  0  0  0  0  0  0  0
  -14.6696  -21.0473    7.9581 C   0  0  0  0  0  0  0  0  0  0  0  0
  -15.6129  -20.4980    5.7388 C   0  0  0  0  0  0  0  0  0  0  0  0
  1  2  1  0  0  0  0
  2  3  1  0  0  0  0
  2  4  1  0  0  0  0
  3  5  1  0  0  0  0
  3  6  1  0  0  0  0
  4  8  1  0  0  0  0
  4  9  1  0  0  0  0
  5  7  1  0  0  0  0
  6 10  1  0  0  0  0
  6 11  1  0  0  0  0
  7  8  1  0  0  0  0
  9 12  1  0  0  0  0
  9 13  1  0  0  0  0
M  END
>  <Score>
0.106194

>  <Energy>
-9.390139

>  <Confidence>
0.893806

>  <Binding_Affinity>
-12.376113

>  <IC50_nM>
0.8

$$$$
ml_pose_38
  PandaDock generated structure

 13 13  0  0  0  0  0  0  0  0999 V2000
  -14.1328  -16.5428    8.5062 O   0  0  0  0  0  0  0  0  0  0  0  0
  -15.1504  -17.3621    8.2971 C   0  0  0  0  0  0  0  0  0  0  0  0
  -15.8096  -18.2100    9.2987 C   0  0  0  0  0  0  0  0  0  0  0  0
  -15.8214  -17.3530    6.9642 C   0  0  0  0  0  0  0  0  0  0  0  0
  -16.8106  -18.9619    9.0310 C   0  0  0  0  0  0  0  0  0  0  0  0
  -15.1458  -18.2086   10.6774 C   0  0  0  0  0  0  0  0  0  0  0  0
  -17.4073  -18.9316    7.6979 C   0  0  0  0  0  0  0  0  0  0  0  0
  -16.9296  -18.1052    6.7758 C   0  0  0  0  0  0  0  0  0  0  0  0
  -15.2002  -16.4127    6.0116 C   0  0  0  0  0  0  0  0  0  0  0  0
  -15.9064  -17.3915   11.6816 C   0  0  0  0  0  0  0  0  0  0  0  0
  -14.9610  -19.7428   11.1031 C   0  0  0  0  0  0  0  0  0  0  0  0
  -14.4009  -17.3293    4.8971 C   0  0  0  0  0  0  0  0  0  0  0  0
  -16.4239  -15.5483    5.3984 C   0  0  0  0  0  0  0  0  0  0  0  0
  1  2  1  0  0  0  0
  2  3  1  0  0  0  0
  2  4  1  0  0  0  0
  3  5  1  0  0  0  0
  3  6  1  0  0  0  0
  4  8  1  0  0  0  0
  4  9  1  0  0  0  0
  5  7  1  0  0  0  0
  6 10  1  0  0  0  0
  6 11  1  0  0  0  0
  7  8  1  0  0  0  0
  9 12  1  0  0  0  0
  9 13  1  0  0  0  0
M  END
>  <Score>
0.119296

>  <Energy>
-7.696675

>  <Confidence>
0.880704

>  <Binding_Affinity>
-12.114086

>  <IC50_nM>
1.3

$$$$
ml_pose_19
  PandaDock generated structure

 13 13  0  0  0  0  0  0  0  0999 V2000
  -15.4230  -18.0165    6.2746 O   0  0  0  0  0  0  0  0  0  0  0  0
  -15.5693  -17.7400    7.6014 C   0  0  0  0  0  0  0  0  0  0  0  0
  -14.8445  -16.8349    8.2889 C   0  0  0  0  0  0  0  0  0  0  0  0
  -16.5626  -18.6124    8.3114 C   0  0  0  0  0  0  0  0  0  0  0  0
  -15.1083  -16.7487    9.7151 C   0  0  0  0  0  0  0  0  0  0  0  0
  -13.8025  -15.8956    7.5032 C   0  0  0  0  0  0  0  0  0  0  0  0
  -15.9154  -17.4209   10.2357 C   0  0  0  0  0  0  0  0  0  0  0  0
  -16.8086  -18.3864    9.6700 C   0  0  0  0  0  0  0  0  0  0  0  0
  -17.2724  -19.5773    7.6455 C   0  0  0  0  0  0  0  0  0  0  0  0
  -14.5121  -14.5632    7.1616 C   0  0  0  0  0  0  0  0  0  0  0  0
  -12.6096  -15.7967    8.2638 C   0  0  0  0  0  0  0  0  0  0  0  0
  -16.8503  -21.0271    7.8757 C   0  0  0  0  0  0  0  0  0  0  0  0
  -18.8214  -19.4803    7.7932 C   0  0  0  0  0  0  0  0  0  0  0  0
  1  2  1  0  0  0  0
  2  3  1  0  0  0  0
  2  4  1  0  0  0  0
  3  5  1  0  0  0  0
  3  6  1  0  0  0  0
  4  8  1  0  0  0  0
  4  9  1  0  0  0  0
  5  7  1  0  0  0  0
  6 10  1  0  0  0  0
  6 11  1  0  0  0  0
  7  8  1  0  0  0  0
  9 12  1  0  0  0  0
  9 13  1  0  0  0  0
M  END
>  <Score>
0.147126

>  <Energy>
-6.401700

>  <Confidence>
0.852874

>  <Binding_Affinity>
-11.557478

>  <IC50_nM>
3.4

$$$$
ml_pose_30
  PandaDock generated structure

 13 13  0  0  0  0  0  0  0  0999 V2000
  -16.0205  -19.0180    6.8822 O   0  0  0  0  0  0  0  0  0  0  0  0
  -15.7484  -18.1232    7.7551 C   0  0  0  0  0  0  0  0  0  0  0  0
  -15.7608  -16.7427    7.3862 C   0  0  0  0  0  0  0  0  0  0  0  0
  -15.5786  -18.4713    9.0216 C   0  0  0  0  0  0  0  0  0  0  0  0
  -15.5526  -15.7433    8.3239 C   0  0  0  0  0  0  0  0  0  0  0  0
  -15.9589  -16.4282    6.0242 C   0  0  0  0  0  0  0  0  0  0  0  0
  -15.2655  -16.1169    9.7362 C   0  0  0  0  0  0  0  0  0  0  0  0
  -15.4234  -17.5148   10.0764 C   0  0  0  0  0  0  0  0  0  0  0  0
  -15.6066  -19.9603    9.4738 C   0  0  0  0  0  0  0  0  0  0  0  0
  -17.3646  -15.9340    5.6263 C   0  0  0  0  0  0  0  0  0  0  0  0
  -15.0343  -15.3201    5.6382 C   0  0  0  0  0  0  0  0  0  0  0  0
  -14.2533  -20.5248    9.7835 C   0  0  0  0  0  0  0  0  0  0  0  0
  -16.5325  -20.2023   10.6124 C   0  0  0  0  0  0  0  0  0  0  0  0
  1  2  1  0  0  0  0
  2  3  1  0  0  0  0
  2  4  1  0  0  0  0
  3  5  1  0  0  0  0
  3  6  1  0  0  0  0
  4  8  1  0  0  0  0
  4  9  1  0  0  0  0
  5  7  1  0  0  0  0
  6 10  1  0  0  0  0
  6 11  1  0  0  0  0
  7  8  1  0  0  0  0
  9 12  1  0  0  0  0
  9 13  1  0  0  0  0
M  END
>  <Score>
0.152754

>  <Energy>
-6.259671

>  <Confidence>
0.847246

>  <Binding_Affinity>
-11.444921

>  <IC50_nM>
4.1

$$$$
ml_pose_40
  PandaDock generated structure

 13 13  0  0  0  0  0  0  0  0999 V2000
  -15.7585  -19.0860    6.9147 O   0  0  0  0  0  0  0  0  0  0  0  0
  -15.7955  -18.1388    7.7573 C   0  0  0  0  0  0  0  0  0  0  0  0
  -16.7877  -17.2909    8.0052 C   0  0  0  0  0  0  0  0  0  0  0  0
  -14.5541  -18.0541    8.6340 C   0  0  0  0  0  0  0  0  0  0  0  0
  -16.7162  -16.2064    8.7550 C   0  0  0  0  0  0  0  0  0  0  0  0
  -17.9903  -17.3153    6.9191 C   0  0  0  0  0  0  0  0  0  0  0  0
  -15.5928  -16.0634    9.6147 C   0  0  0  0  0  0  0  0  0  0  0  0
  -14.5883  -16.9830    9.4965 C   0  0  0  0  0  0  0  0  0  0  0  0
  -13.4999  -18.9998    8.5563 C   0  0  0  0  0  0  0  0  0  0  0  0
  -19.1587  -17.9327    7.5472 C   0  0  0  0  0  0  0  0  0  0  0  0
  -18.3398  -16.0355    6.3956 C   0  0  0  0  0  0  0  0  0  0  0  0
  -12.2052  -18.4050    7.8597 C   0  0  0  0  0  0  0  0  0  0  0  0
  -13.1129  -19.5890    9.8847 C   0  0  0  0  0  0  0  0  0  0  0  0
  1  2  1  0  0  0  0
  2  3  1  0  0  0  0
  2  4  1  0  0  0  0
  3  5  1  0  0  0  0
  3  6  1  0  0  0  0
  4  8  1  0  0  0  0
  4  9  1  0  0  0  0
  5  7  1  0  0  0  0
  6 10  1  0  0  0  0
  6 11  1  0  0  0  0
  7  8  1  0  0  0  0
  9 12  1  0  0  0  0
  9 13  1  0  0  0  0
M  END
>  <Score>
0.169172

>  <Energy>
-8.577056

>  <Confidence>
0.830828

>  <Binding_Affinity>
-11.116570

>  <IC50_nM>
7.1

$$$$
ml_pose_24
  PandaDock generated structure

 13 13  0  0  0  0  0  0  0  0999 V2000
  -17.5474  -18.0116    8.2367 O   0  0  0  0  0  0  0  0  0  0  0  0
  -16.2262  -17.7774    8.1385 C   0  0  0  0  0  0  0  0  0  0  0  0
  -15.7769  -16.9026    9.0881 C   0  0  0  0  0  0  0  0  0  0  0  0
  -15.4801  -18.4787    7.2934 C   0  0  0  0  0  0  0  0  0  0  0  0
  -14.3636  -16.5011    8.8657 C   0  0  0  0  0  0  0  0  0  0  0  0
  -16.5448  -16.1670    9.9703 C   0  0  0  0  0  0  0  0  0  0  0  0
  -13.5720  -17.2801    8.0683 C   0  0  0  0  0  0  0  0  0  0  0  0
  -14.1079  -18.2401    7.3186 C   0  0  0  0  0  0  0  0  0  0  0  0
  -16.0338  -19.5089    6.3748 C   0  0  0  0  0  0  0  0  0  0  0  0
  -16.4781  -16.6358   11.4752 C   0  0  0  0  0  0  0  0  0  0  0  0
  -16.3035  -14.6445   10.0822 C   0  0  0  0  0  0  0  0  0  0  0  0
  -16.3275  -19.0759    4.8998 C   0  0  0  0  0  0  0  0  0  0  0  0
  -15.3383  -20.8763    6.5281 C   0  0  0  0  0  0  0  0  0  0  0  0
  1  2  1  0  0  0  0
  2  3  1  0  0  0  0
  2  4  1  0  0  0  0
  3  5  1  0  0  0  0
  3  6  1  0  0  0  0
  4  8  1  0  0  0  0
  4  9  1  0  0  0  0
  5  7  1  0  0  0  0
  6 10  1  0  0  0  0
  6 11  1  0  0  0  0
  7  8  1  0  0  0  0
  9 12  1  0  0  0  0
  9 13  1  0  0  0  0
M  END
>  <Score>
0.175236

>  <Energy>
-5.761960

>  <Confidence>
0.824764

>  <Binding_Affinity>
-10.995275

>  <IC50_nM>
8.7

$$$$
ml_pose_6
  PandaDock generated structure

 13 13  0  0  0  0  0  0  0  0999 V2000
  -16.7197  -19.2602    7.8223 O   0  0  0  0  0  0  0  0  0  0  0  0
  -16.0681  -18.1859    8.0031 C   0  0  0  0  0  0  0  0  0  0  0  0
  -15.2597  -17.6714    7.0764 C   0  0  0  0  0  0  0  0  0  0  0  0
  -16.0362  -17.5555    9.3304 C   0  0  0  0  0  0  0  0  0  0  0  0
  -14.5115  -16.5271    7.3013 C   0  0  0  0  0  0  0  0  0  0  0  0
  -15.2128  -18.3268    5.7576 C   0  0  0  0  0  0  0  0  0  0  0  0
  -14.3591  -15.8650    8.5569 C   0  0  0  0  0  0  0  0  0  0  0  0
  -15.2008  -16.4984    9.6186 C   0  0  0  0  0  0  0  0  0  0  0  0
  -16.9849  -18.2566   10.4898 C   0  0  0  0  0  0  0  0  0  0  0  0
  -16.1890  -17.5527    4.7326 C   0  0  0  0  0  0  0  0  0  0  0  0
  -13.8332  -18.3541    5.1651 C   0  0  0  0  0  0  0  0  0  0  0  0
  -16.0147  -18.8843   11.4189 C   0  0  0  0  0  0  0  0  0  0  0  0
  -17.7104  -17.1619   11.0669 C   0  0  0  0  0  0  0  0  0  0  0  0
  1  2  1  0  0  0  0
  2  3  1  0  0  0  0
  2  4  1  0  0  0  0
  3  5  1  0  0  0  0
  3  6  1  0  0  0  0
  4  8  1  0  0  0  0
  4  9  1  0  0  0  0
  5  7  1  0  0  0  0
  6 10  1  0  0  0  0
  6 11  1  0  0  0  0
  7  8  1  0  0  0  0
  9 12  1  0  0  0  0
  9 13  1  0  0  0  0
M  END
>  <Score>
0.184564

>  <Energy>
-7.518280

>  <Confidence>
0.815436

>  <Binding_Affinity>
-10.808718

>  <IC50_nM>
11.9

$$$$
ml_pose_34
  PandaDock generated structure

 13 13  0  0  0  0  0  0  0  0999 V2000
  -15.0458  -19.1619    6.9416 O   0  0  0  0  0  0  0  0  0  0  0  0
  -15.5578  -18.1087    7.8573 C   0  0  0  0  0  0  0  0  0  0  0  0
  -16.1397  -18.4706    8.9545 C   0  0  0  0  0  0  0  0  0  0  0  0
  -15.3909  -16.8143    7.4789 C   0  0  0  0  0  0  0  0  0  0  0  0
  -16.5304  -17.4915    9.9764 C   0  0  0  0  0  0  0  0  0  0  0  0
  -16.2995  -19.8519    9.3521 C   0  0  0  0  0  0  0  0  0  0  0  0
  -16.2928  -16.1295    9.5248 C   0  0  0  0  0  0  0  0  0  0  0  0
  -15.8327  -15.7799    8.3058 C   0  0  0  0  0  0  0  0  0  0  0  0
  -14.7365  -16.4222    6.1520 C   0  0  0  0  0  0  0  0  0  0  0  0
  -15.2418  -20.4267   10.3889 C   0  0  0  0  0  0  0  0  0  0  0  0
  -17.7194  -20.1466   10.0183 C   0  0  0  0  0  0  0  0  0  0  0  0
  -15.7384  -15.8584    5.0905 C   0  0  0  0  0  0  0  0  0  0  0  0
  -13.5742  -15.4376    6.2991 C   0  0  0  0  0  0  0  0  0  0  0  0
  1  2  1  0  0  0  0
  2  3  1  0  0  0  0
  2  4  1  0  0  0  0
  3  5  1  0  0  0  0
  3  6  1  0  0  0  0
  4  8  1  0  0  0  0
  4  9  1  0  0  0  0
  5  7  1  0  0  0  0
  6 10  1  0  0  0  0
  6 11  1  0  0  0  0
  7  8  1  0  0  0  0
  9 12  1  0  0  0  0
  9 13  1  0  0  0  0
M  END
>  <Score>
0.185364

>  <Energy>
-7.561960

>  <Confidence>
0.814636

>  <Binding_Affinity>
-10.792720

>  <IC50_nM>
12.2

$$$$
ml_pose_0
  PandaDock generated structure

 13 13  0  0  0  0  0  0  0  0999 V2000
  -14.7890  -19.1269    9.1313 O   0  0  0  0  0  0  0  0  0  0  0  0
  -15.5276  -18.0665    8.5105 C   0  0  0  0  0  0  0  0  0  0  0  0
  -14.8141  -17.4725    7.5854 C   0  0  0  0  0  0  0  0  0  0  0  0
  -16.6779  -17.7828    8.8135 C   0  0  0  0  0  0  0  0  0  0  0  0
  -15.4641  -16.3832    6.8384 C   0  0  0  0  0  0  0  0  0  0  0  0
  -13.2040  -17.6997    7.1356 C   0  0  0  0  0  0  0  0  0  0  0  0
  -16.6526  -16.0862    7.0615 C   0  0  0  0  0  0  0  0  0  0  0  0
  -17.3919  -16.7735    8.0622 C   0  0  0  0  0  0  0  0  0  0  0  0
  -17.4824  -18.5552    9.8280 C   0  0  0  0  0  0  0  0  0  0  0  0
  -13.0952  -18.7223    5.9641 C   0  0  0  0  0  0  0  0  0  0  0  0
  -12.4860  -16.4780    6.9967 C   0  0  0  0  0  0  0  0  0  0  0  0
  -17.6453  -17.8078   11.1471 C   0  0  0  0  0  0  0  0  0  0  0  0
  -18.8698  -19.1452    9.2657 C   0  0  0  0  0  0  0  0  0  0  0  0
  1  2  1  0  0  0  0
  2  3  1  0  0  0  0
  2  4  1  0  0  0  0
  3  5  1  0  0  0  0
  3  6  1  0  0  0  0
  4  8  1  0  0  0  0
  4  9  1  0  0  0  0
  5  7  1  0  0  0  0
  6 10  1  0  0  0  0
  6 11  1  0  0  0  0
  7  8  1  0  0  0  0
  9 12  1  0  0  0  0
  9 13  1  0  0  0  0
M  END
>  <Score>
0.195208

>  <Energy>
-6.678450

>  <Confidence>
0.804792

>  <Binding_Affinity>
-10.595834

>  <IC50_nM>
17.1

$$$$
ml_pose_8
  PandaDock generated structure

 13 13  0  0  0  0  0  0  0  0999 V2000
  -16.1120  -16.7271    9.8906 O   0  0  0  0  0  0  0  0  0  0  0  0
  -15.7738  -17.3056    8.6421 C   0  0  0  0  0  0  0  0  0  0  0  0
  -14.8246  -17.0600    7.9387 C   0  0  0  0  0  0  0  0  0  0  0  0
  -16.6319  -18.4013    8.2046 C   0  0  0  0  0  0  0  0  0  0  0  0
  -14.5083  -17.7500    6.6846 C   0  0  0  0  0  0  0  0  0  0  0  0
  -13.7200  -15.9428    8.4636 C   0  0  0  0  0  0  0  0  0  0  0  0
  -15.3081  -18.7886    6.3640 C   0  0  0  0  0  0  0  0  0  0  0  0
  -16.4192  -19.0702    7.0093 C   0  0  0  0  0  0  0  0  0  0  0  0
  -17.9364  -18.8127    9.0261 C   0  0  0  0  0  0  0  0  0  0  0  0
  -12.4257  -16.6361    9.1562 C   0  0  0  0  0  0  0  0  0  0  0  0
  -13.2633  -15.0359    7.3548 C   0  0  0  0  0  0  0  0  0  0  0  0
  -19.2575  -18.3288    8.3885 C   0  0  0  0  0  0  0  0  0  0  0  0
  -17.9192  -20.2409    9.2169 C   0  0  0  0  0  0  0  0  0  0  0  0
  1  2  1  0  0  0  0
  2  3  1  0  0  0  0
  2  4  1  0  0  0  0
  3  5  1  0  0  0  0
  3  6  1  0  0  0  0
  4  8  1  0  0  0  0
  4  9  1  0  0  0  0
  5  7  1  0  0  0  0
  6 10  1  0  0  0  0
  6 11  1  0  0  0  0
  7  8  1  0  0  0  0
  9 12  1  0  0  0  0
  9 13  1  0  0  0  0
M  END
>  <Score>
0.196450

>  <Energy>
-6.981254

>  <Confidence>
0.803550

>  <Binding_Affinity>
-10.571002

>  <IC50_nM>
17.8

$$$$
ml_pose_12
  PandaDock generated structure

 13 13  0  0  0  0  0  0  0  0999 V2000
  -17.7899  -17.4988    8.0032 O   0  0  0  0  0  0  0  0  0  0  0  0
  -16.2900  -17.7074    8.1568 C   0  0  0  0  0  0  0  0  0  0  0  0
  -15.5529  -18.2062    7.1646 C   0  0  0  0  0  0  0  0  0  0  0  0
  -15.6624  -17.1772    9.2214 C   0  0  0  0  0  0  0  0  0  0  0  0
  -14.0631  -18.3665    7.2108 C   0  0  0  0  0  0  0  0  0  0  0  0
  -16.3620  -18.8119    5.8964 C   0  0  0  0  0  0  0  0  0  0  0  0
  -13.5424  -17.9389    8.3205 C   0  0  0  0  0  0  0  0  0  0  0  0
  -14.2043  -17.3726    9.4402 C   0  0  0  0  0  0  0  0  0  0  0  0
  -16.3357  -16.4859   10.3130 C   0  0  0  0  0  0  0  0  0  0  0  0
  -16.2337  -17.8753    4.6517 C   0  0  0  0  0  0  0  0  0  0  0  0
  -15.7577  -20.1711    5.5448 C   0  0  0  0  0  0  0  0  0  0  0  0
  -16.4976  -17.3668   11.7240 C   0  0  0  0  0  0  0  0  0  0  0  0
  -15.8082  -15.1214   10.6925 C   0  0  0  0  0  0  0  0  0  0  0  0
  1  2  1  0  0  0  0
  2  3  1  0  0  0  0
  2  4  1  0  0  0  0
  3  5  1  0  0  0  0
  3  6  1  0  0  0  0
  4  8  1  0  0  0  0
  4  9  1  0  0  0  0
  5  7  1  0  0  0  0
  6 10  1  0  0  0  0
  6 11  1  0  0  0  0
  7  8  1  0  0  0  0
  9 12  1  0  0  0  0
  9 13  1  0  0  0  0
M  END
>  <Score>
0.197571

>  <Energy>
-10.399300

>  <Confidence>
0.802429

>  <Binding_Affinity>
-10.548587

>  <IC50_nM>
18.5

$$$$
ml_pose_20
  PandaDock generated structure

 13 13  0  0  0  0  0  0  0  0999 V2000
  -17.5607  -17.7486    7.4130 O   0  0  0  0  0  0  0  0  0  0  0  0
  -16.2444  -17.7251    7.9874 C   0  0  0  0  0  0  0  0  0  0  0  0
  -15.7342  -18.7563    8.5054 C   0  0  0  0  0  0  0  0  0  0  0  0
  -15.4564  -16.5764    7.8731 C   0  0  0  0  0  0  0  0  0  0  0  0
  -14.4338  -18.7283    9.0848 C   0  0  0  0  0  0  0  0  0  0  0  0
  -16.4846  -20.1574    8.6191 C   0  0  0  0  0  0  0  0  0  0  0  0
  -13.6799  -17.7060    9.0646 C   0  0  0  0  0  0  0  0  0  0  0  0
  -14.2674  -16.5067    8.4685 C   0  0  0  0  0  0  0  0  0  0  0  0
  -16.0705  -15.2686    7.2914 C   0  0  0  0  0  0  0  0  0  0  0  0
  -16.1127  -21.1152    7.5524 C   0  0  0  0  0  0  0  0  0  0  0  0
  -16.4583  -20.7948    9.9921 C   0  0  0  0  0  0  0  0  0  0  0  0
  -16.4747  -14.2694    8.2604 C   0  0  0  0  0  0  0  0  0  0  0  0
  -15.1224  -14.7471    6.2278 C   0  0  0  0  0  0  0  0  0  0  0  0
  1  2  1  0  0  0  0
  2  3  1  0  0  0  0
  2  4  1  0  0  0  0
  3  5  1  0  0  0  0
  3  6  1  0  0  0  0
  4  8  1  0  0  0  0
  4  9  1  0  0  0  0
  5  7  1  0  0  0  0
  6 10  1  0  0  0  0
  6 11  1  0  0  0  0
  7  8  1  0  0  0  0
  9 12  1  0  0  0  0
  9 13  1  0  0  0  0
M  END
>  <Score>
0.215526

>  <Energy>
-9.396652

>  <Confidence>
0.784474

>  <Binding_Affinity>
-10.189486

>  <IC50_nM>
33.9

$$$$
ml_pose_46
  PandaDock generated structure

 13 13  0  0  0  0  0  0  0  0999 V2000
  -15.0697  -16.3070    6.9314 O   0  0  0  0  0  0  0  0  0  0  0  0
  -15.4172  -17.3252    7.7631 C   0  0  0  0  0  0  0  0  0  0  0  0
  -16.6757  -18.1132    7.5510 C   0  0  0  0  0  0  0  0  0  0  0  0
  -14.9103  -17.4366    9.0367 C   0  0  0  0  0  0  0  0  0  0  0  0
  -17.0303  -19.0907    8.3818 C   0  0  0  0  0  0  0  0  0  0  0  0
  -17.1725  -17.9937    6.1100 C   0  0  0  0  0  0  0  0  0  0  0  0
  -16.4313  -19.1354    9.5666 C   0  0  0  0  0  0  0  0  0  0  0  0
  -15.3851  -18.2818    9.8990 C   0  0  0  0  0  0  0  0  0  0  0  0
  -13.7678  -16.5705    9.4847 C   0  0  0  0  0  0  0  0  0  0  0  0
  -16.7575  -19.0013    5.0379 C   0  0  0  0  0  0  0  0  0  0  0  0
  -18.7357  -17.9590    6.1530 C   0  0  0  0  0  0  0  0  0  0  0  0
  -14.1865  -15.4970   10.5252 C   0  0  0  0  0  0  0  0  0  0  0  0
  -12.5604  -17.3886    9.8995 C   0  0  0  0  0  0  0  0  0  0  0  0
  1  2  1  0  0  0  0
  2  3  1  0  0  0  0
  2  4  1  0  0  0  0
  3  5  1  0  0  0  0
  3  6  1  0  0  0  0
  4  8  1  0  0  0  0
  4  9  1  0  0  0  0
  5  7  1  0  0  0  0
  6 10  1  0  0  0  0
  6 11  1  0  0  0  0
  7  8  1  0  0  0  0
  9 12  1  0  0  0  0
  9 13  1  0  0  0  0
M  END
>  <Score>
0.222771

>  <Energy>
-6.733873

>  <Confidence>
0.777229

>  <Binding_Affinity>
-10.044589

>  <IC50_nM>
43.3

$$$$
ml_pose_21
  PandaDock generated structure

 13 13  0  0  0  0  0  0  0  0999 V2000
  -15.8319  -16.5366    9.7827 O   0  0  0  0  0  0  0  0  0  0  0  0
  -15.7446  -17.3141    8.6754 C   0  0  0  0  0  0  0  0  0  0  0  0
  -16.8122  -18.0797    8.1652 C   0  0  0  0  0  0  0  0  0  0  0  0
  -14.5781  -17.5046    7.9922 C   0  0  0  0  0  0  0  0  0  0  0  0
  -16.6371  -18.9278    7.1577 C   0  0  0  0  0  0  0  0  0  0  0  0
  -18.2387  -17.9532    8.9811 C   0  0  0  0  0  0  0  0  0  0  0  0
  -15.4820  -19.0703    6.4153 C   0  0  0  0  0  0  0  0  0  0  0  0
  -14.3231  -18.2217    6.9492 C   0  0  0  0  0  0  0  0  0  0  0  0
  -13.3844  -16.7118    8.5207 C   0  0  0  0  0  0  0  0  0  0  0  0
  -19.1822  -16.9407    8.1432 C   0  0  0  0  0  0  0  0  0  0  0  0
  -18.8574  -19.2707    9.0718 C   0  0  0  0  0  0  0  0  0  0  0  0
  -12.4311  -17.6375    9.2328 C   0  0  0  0  0  0  0  0  0  0  0  0
  -12.5973  -15.9314    7.2526 C   0  0  0  0  0  0  0  0  0  0  0  0
  1  2  1  0  0  0  0
  2  3  1  0  0  0  0
  2  4  1  0  0  0  0
  3  5  1  0  0  0  0
  3  6  1  0  0  0  0
  4  8  1  0  0  0  0
  4  9  1  0  0  0  0
  5  7  1  0  0  0  0
  6 10  1  0  0  0  0
  6 11  1  0  0  0  0
  7  8  1  0  0  0  0
  9 12  1  0  0  0  0
  9 13  1  0  0  0  0
M  END
>  <Score>
0.228896

>  <Energy>
-6.877338

>  <Confidence>
0.771104

>  <Binding_Affinity>
-9.922071

>  <IC50_nM>
53.3

$$$$
ml_pose_25
  PandaDock generated structure

 13 13  0  0  0  0  0  0  0  0999 V2000
  -17.4652  -16.8006    8.1431 O   0  0  0  0  0  0  0  0  0  0  0  0
  -16.2593  -17.4417    8.1350 C   0  0  0  0  0  0  0  0  0  0  0  0
  -15.0813  -16.6871    8.4209 C   0  0  0  0  0  0  0  0  0  0  0  0
  -16.1151  -18.7869    7.8187 C   0  0  0  0  0  0  0  0  0  0  0  0
  -13.8399  -17.4012    8.6555 C   0  0  0  0  0  0  0  0  0  0  0  0
  -15.1107  -15.2640    8.8809 C   0  0  0  0  0  0  0  0  0  0  0  0
  -13.7732  -18.6640    8.2314 C   0  0  0  0  0  0  0  0  0  0  0  0
  -14.9241  -19.4509    7.8709 C   0  0  0  0  0  0  0  0  0  0  0  0
  -17.3301  -19.4901    7.4863 C   0  0  0  0  0  0  0  0  0  0  0  0
  -15.1443  -15.0112   10.3054 C   0  0  0  0  0  0  0  0  0  0  0  0
  -14.0275  -14.4464    8.1818 C   0  0  0  0  0  0  0  0  0  0  0  0
  -17.4922  -19.8632    5.9382 C   0  0  0  0  0  0  0  0  0  0  0  0
  -17.5372  -20.7927    8.2719 C   0  0  0  0  0  0  0  0  0  0  0  0
  1  2  1  0  0  0  0
  2  3  1  0  0  0  0
  2  4  1  0  0  0  0
  3  5  1  0  0  0  0
  3  6  1  0  0  0  0
  4  8  1  0  0  0  0
  4  9  1  0  0  0  0
  5  7  1  0  0  0  0
  6 10  1  0  0  0  0
  6 11  1  0  0  0  0
  7  8  1  0  0  0  0
  9 12  1  0  0  0  0
  9 13  1  0  0  0  0
M  END
>  <Score>
0.246703

>  <Energy>
-6.021759

>  <Confidence>
0.753297

>  <Binding_Affinity>
-9.565943

>  <IC50_nM>
97.1

$$$$
ml_pose_11
  PandaDock generated structure

 13 13  0  0  0  0  0  0  0  0999 V2000
  -15.9546  -18.7862    9.7698 O   0  0  0  0  0  0  0  0  0  0  0  0
  -15.7811  -18.0033    8.5814 C   0  0  0  0  0  0  0  0  0  0  0  0
  -16.1729  -18.5272    7.4304 C   0  0  0  0  0  0  0  0  0  0  0  0
  -15.0859  -16.8161    8.7920 C   0  0  0  0  0  0  0  0  0  0  0  0
  -16.0760  -17.6799    6.3038 C   0  0  0  0  0  0  0  0  0  0  0  0
  -16.8764  -19.8411    7.2744 C   0  0  0  0  0  0  0  0  0  0  0  0
  -15.4427  -16.4219    6.4220 C   0  0  0  0  0  0  0  0  0  0  0  0
  -15.0105  -16.0470    7.6572 C   0  0  0  0  0  0  0  0  0  0  0  0
  -14.6631  -16.3672   10.1577 C   0  0  0  0  0  0  0  0  0  0  0  0
  -18.4348  -19.7012    7.2423 C   0  0  0  0  0  0  0  0  0  0  0  0
  -16.4094  -20.4904    6.0611 C   0  0  0  0  0  0  0  0  0  0  0  0
  -13.0038  -16.4257   10.2642 C   0  0  0  0  0  0  0  0  0  0  0  0
  -15.1889  -14.9928   10.3837 C   0  0  0  0  0  0  0  0  0  0  0  0
  1  2  1  0  0  0  0
  2  3  1  0  0  0  0
  2  4  1  0  0  0  0
  3  5  1  0  0  0  0
  3  6  1  0  0  0  0
  4  8  1  0  0  0  0
  4  9  1  0  0  0  0
  5  7  1  0  0  0  0
  6 10  1  0  0  0  0
  6 11  1  0  0  0  0
  7  8  1  0  0  0  0
  9 12  1  0  0  0  0
  9 13  1  0  0  0  0
M  END
>  <Score>
0.246754

>  <Energy>
-6.999104

>  <Confidence>
0.753246

>  <Binding_Affinity>
-9.564914

>  <IC50_nM>
97.3

$$$$
ml_pose_45
  PandaDock generated structure

 13 13  0  0  0  0  0  0  0  0999 V2000
  -17.3382  -18.8126    8.4356 O   0  0  0  0  0  0  0  0  0  0  0  0
  -16.2126  -18.0514    8.2221 C   0  0  0  0  0  0  0  0  0  0  0  0
  -16.1314  -16.6650    8.8305 C   0  0  0  0  0  0  0  0  0  0  0  0
  -15.1797  -18.5575    7.5822 C   0  0  0  0  0  0  0  0  0  0  0  0
  -14.8840  -15.9969    8.4991 C   0  0  0  0  0  0  0  0  0  0  0  0
  -17.3688  -16.0232    9.3550 C   0  0  0  0  0  0  0  0  0  0  0  0
  -13.9089  -16.4980    7.8522 C   0  0  0  0  0  0  0  0  0  0  0  0
  -13.9832  -17.8066    7.4077 C   0  0  0  0  0  0  0  0  0  0  0  0
  -15.2180  -20.0248    7.1423 C   0  0  0  0  0  0  0  0  0  0  0  0
  -17.1614  -16.0580   10.8746 C   0  0  0  0  0  0  0  0  0  0  0  0
  -17.4625  -14.6678    8.8589 C   0  0  0  0  0  0  0  0  0  0  0  0
  -15.2908  -20.1437    5.6162 C   0  0  0  0  0  0  0  0  0  0  0  0
  -13.9604  -20.7946    7.6635 C   0  0  0  0  0  0  0  0  0  0  0  0
  1  2  1  0  0  0  0
  2  3  1  0  0  0  0
  2  4  1  0  0  0  0
  3  5  1  0  0  0  0
  3  6  1  0  0  0  0
  4  8  1  0  0  0  0
  4  9  1  0  0  0  0
  5  7  1  0  0  0  0
  6 10  1  0  0  0  0
  6 11  1  0  0  0  0
  7  8  1  0  0  0  0
  9 12  1  0  0  0  0
  9 13  1  0  0  0  0
M  END
>  <Score>
0.249869

>  <Energy>
-6.589675

>  <Confidence>
0.750131

>  <Binding_Affinity>
-9.502615

>  <IC50_nM>
108.1

$$$$
ml_pose_17
  PandaDock generated structure

 13 13  0  0  0  0  0  0  0  0999 V2000
  -14.5282  -17.1685    9.7074 O   0  0  0  0  0  0  0  0  0  0  0  0
  -15.3867  -17.5264    8.5864 C   0  0  0  0  0  0  0  0  0  0  0  0
  -16.1950  -18.6031    8.7299 C   0  0  0  0  0  0  0  0  0  0  0  0
  -15.2494  -16.8636    7.4171 C   0  0  0  0  0  0  0  0  0  0  0  0
  -17.0271  -19.0494    7.6690 C   0  0  0  0  0  0  0  0  0  0  0  0
  -16.3882  -19.3533   10.0364 C   0  0  0  0  0  0  0  0  0  0  0  0
  -17.0004  -18.3011    6.4183 C   0  0  0  0  0  0  0  0  0  0  0  0
  -16.0299  -17.2345    6.3951 C   0  0  0  0  0  0  0  0  0  0  0  0
  -14.3116  -15.6709    7.3369 C   0  0  0  0  0  0  0  0  0  0  0  0
  -17.5621  -18.9758   10.8746 C   0  0  0  0  0  0  0  0  0  0  0  0
  -16.4766  -20.8417    9.8228 C   0  0  0  0  0  0  0  0  0  0  0  0
  -12.9864  -16.0300    6.5716 C   0  0  0  0  0  0  0  0  0  0  0  0
  -14.9585  -14.4815    6.7747 C   0  0  0  0  0  0  0  0  0  0  0  0
  1  2  1  0  0  0  0
  2  3  1  0  0  0  0
  2  4  1  0  0  0  0
  3  5  1  0  0  0  0
  3  6  1  0  0  0  0
  4  8  1  0  0  0  0
  4  9  1  0  0  0  0
  5  7  1  0  0  0  0
  6 10  1  0  0  0  0
  6 11  1  0  0  0  0
  7  8  1  0  0  0  0
  9 12  1  0  0  0  0
  9 13  1  0  0  0  0
M  END
>  <Score>
0.298951

>  <Energy>
-7.012869

>  <Confidence>
0.701049

>  <Binding_Affinity>
-8.520980

>  <IC50_nM>
566.8

$$$$
ml_pose_9
  PandaDock generated structure

 13 13  0  0  0  0  0  0  0  0999 V2000
  -16.0876  -15.9657    7.3882 O   0  0  0  0  0  0  0  0  0  0  0  0
  -15.8239  -17.2228    7.9542 C   0  0  0  0  0  0  0  0  0  0  0  0
  -16.6160  -17.6085    9.0955 C   0  0  0  0  0  0  0  0  0  0  0  0
  -14.8526  -17.9484    7.3749 C   0  0  0  0  0  0  0  0  0  0  0  0
  -16.1651  -18.9164    9.5943 C   0  0  0  0  0  0  0  0  0  0  0  0
  -17.5598  -16.6928    9.6788 C   0  0  0  0  0  0  0  0  0  0  0  0
  -15.1747  -19.6510    9.1450 C   0  0  0  0  0  0  0  0  0  0  0  0
  -14.6294  -19.1204    7.9458 C   0  0  0  0  0  0  0  0  0  0  0  0
  -14.0842  -17.4955    6.1299 C   0  0  0  0  0  0  0  0  0  0  0  0
  -18.9238  -17.0931    9.3418 C   0  0  0  0  0  0  0  0  0  0  0  0
  -17.3572  -16.8080   11.1635 C   0  0  0  0  0  0  0  0  0  0  0  0
  -12.7045  -17.0147    6.4675 C   0  0  0  0  0  0  0  0  0  0  0  0
  -14.1211  -18.5627    5.0607 C   0  0  0  0  0  0  0  0  0  0  0  0
  1  2  1  0  0  0  0
  2  3  1  0  0  0  0
  2  4  1  0  0  0  0
  3  5  1  0  0  0  0
  3  6  1  0  0  0  0
  4  8  1  0  0  0  0
  4  9  1  0  0  0  0
  5  7  1  0  0  0  0
  6 10  1  0  0  0  0
  6 11  1  0  0  0  0
  7  8  1  0  0  0  0
  9 12  1  0  0  0  0
  9 13  1  0  0  0  0
M  END
>  <Score>
0.318737

>  <Energy>
-7.102964

>  <Confidence>
0.681263

>  <Binding_Affinity>
-8.125252

>  <IC50_nM>
1105.4

$$$$
