ml_pose_21
  PandaDock generated structure

 13 13  0  0  0  0  0  0  0  0999 V2000
  -15.8319  -16.5366    9.7827 O   0  0  0  0  0  0  0  0  0  0  0  0
  -15.7446  -17.3141    8.6754 C   0  0  0  0  0  0  0  0  0  0  0  0
  -16.8122  -18.0797    8.1652 C   0  0  0  0  0  0  0  0  0  0  0  0
  -14.5781  -17.5046    7.9922 C   0  0  0  0  0  0  0  0  0  0  0  0
  -16.6371  -18.9278    7.1577 C   0  0  0  0  0  0  0  0  0  0  0  0
  -18.2387  -17.9532    8.9811 C   0  0  0  0  0  0  0  0  0  0  0  0
  -15.4820  -19.0703    6.4153 C   0  0  0  0  0  0  0  0  0  0  0  0
  -14.3231  -18.2217    6.9492 C   0  0  0  0  0  0  0  0  0  0  0  0
  -13.3844  -16.7118    8.5207 C   0  0  0  0  0  0  0  0  0  0  0  0
  -19.1822  -16.9407    8.1432 C   0  0  0  0  0  0  0  0  0  0  0  0
  -18.8574  -19.2707    9.0718 C   0  0  0  0  0  0  0  0  0  0  0  0
  -12.4311  -17.6375    9.2328 C   0  0  0  0  0  0  0  0  0  0  0  0
  -12.5973  -15.9314    7.2526 C   0  0  0  0  0  0  0  0  0  0  0  0
  1  2  1  0  0  0  0
  2  3  1  0  0  0  0
  2  4  1  0  0  0  0
  3  5  1  0  0  0  0
  3  6  1  0  0  0  0
  4  8  1  0  0  0  0
  4  9  1  0  0  0  0
  5  7  1  0  0  0  0
  6 10  1  0  0  0  0
  6 11  1  0  0  0  0
  7  8  1  0  0  0  0
  9 12  1  0  0  0  0
  9 13  1  0  0  0  0
M  END
>  <Score>
0.228896

>  <Energy>
-6.877338

>  <Confidence>
0.771104

>  <Binding_Affinity>
-9.922071

>  <IC50_nM>
53.3

$$$$
