ml_pose_11
  PandaDock generated structure

 13 13  0  0  0  0  0  0  0  0999 V2000
  -15.9546  -18.7862    9.7698 O   0  0  0  0  0  0  0  0  0  0  0  0
  -15.7811  -18.0033    8.5814 C   0  0  0  0  0  0  0  0  0  0  0  0
  -16.1729  -18.5272    7.4304 C   0  0  0  0  0  0  0  0  0  0  0  0
  -15.0859  -16.8161    8.7920 C   0  0  0  0  0  0  0  0  0  0  0  0
  -16.0760  -17.6799    6.3038 C   0  0  0  0  0  0  0  0  0  0  0  0
  -16.8764  -19.8411    7.2744 C   0  0  0  0  0  0  0  0  0  0  0  0
  -15.4427  -16.4219    6.4220 C   0  0  0  0  0  0  0  0  0  0  0  0
  -15.0105  -16.0470    7.6572 C   0  0  0  0  0  0  0  0  0  0  0  0
  -14.6631  -16.3672   10.1577 C   0  0  0  0  0  0  0  0  0  0  0  0
  -18.4348  -19.7012    7.2423 C   0  0  0  0  0  0  0  0  0  0  0  0
  -16.4094  -20.4904    6.0611 C   0  0  0  0  0  0  0  0  0  0  0  0
  -13.0038  -16.4257   10.2642 C   0  0  0  0  0  0  0  0  0  0  0  0
  -15.1889  -14.9928   10.3837 C   0  0  0  0  0  0  0  0  0  0  0  0
  1  2  1  0  0  0  0
  2  3  1  0  0  0  0
  2  4  1  0  0  0  0
  3  5  1  0  0  0  0
  3  6  1  0  0  0  0
  4  8  1  0  0  0  0
  4  9  1  0  0  0  0
  5  7  1  0  0  0  0
  6 10  1  0  0  0  0
  6 11  1  0  0  0  0
  7  8  1  0  0  0  0
  9 12  1  0  0  0  0
  9 13  1  0  0  0  0
M  END
>  <Score>
0.246754

>  <Energy>
-6.999104

>  <Confidence>
0.753246

>  <Binding_Affinity>
-9.564914

>  <IC50_nM>
97.3

$$$$
