ml_pose_25
  PandaDock generated structure

 13 13  0  0  0  0  0  0  0  0999 V2000
  -17.4652  -16.8006    8.1431 O   0  0  0  0  0  0  0  0  0  0  0  0
  -16.2593  -17.4417    8.1350 C   0  0  0  0  0  0  0  0  0  0  0  0
  -15.0813  -16.6871    8.4209 C   0  0  0  0  0  0  0  0  0  0  0  0
  -16.1151  -18.7869    7.8187 C   0  0  0  0  0  0  0  0  0  0  0  0
  -13.8399  -17.4012    8.6555 C   0  0  0  0  0  0  0  0  0  0  0  0
  -15.1107  -15.2640    8.8809 C   0  0  0  0  0  0  0  0  0  0  0  0
  -13.7732  -18.6640    8.2314 C   0  0  0  0  0  0  0  0  0  0  0  0
  -14.9241  -19.4509    7.8709 C   0  0  0  0  0  0  0  0  0  0  0  0
  -17.3301  -19.4901    7.4863 C   0  0  0  0  0  0  0  0  0  0  0  0
  -15.1443  -15.0112   10.3054 C   0  0  0  0  0  0  0  0  0  0  0  0
  -14.0275  -14.4464    8.1818 C   0  0  0  0  0  0  0  0  0  0  0  0
  -17.4922  -19.8632    5.9382 C   0  0  0  0  0  0  0  0  0  0  0  0
  -17.5372  -20.7927    8.2719 C   0  0  0  0  0  0  0  0  0  0  0  0
  1  2  1  0  0  0  0
  2  3  1  0  0  0  0
  2  4  1  0  0  0  0
  3  5  1  0  0  0  0
  3  6  1  0  0  0  0
  4  8  1  0  0  0  0
  4  9  1  0  0  0  0
  5  7  1  0  0  0  0
  6 10  1  0  0  0  0
  6 11  1  0  0  0  0
  7  8  1  0  0  0  0
  9 12  1  0  0  0  0
  9 13  1  0  0  0  0
M  END
>  <Score>
0.246703

>  <Energy>
-6.021759

>  <Confidence>
0.753297

>  <Binding_Affinity>
-9.565943

>  <IC50_nM>
97.1

$$$$
