ml_pose_45
  PandaDock generated structure

 13 13  0  0  0  0  0  0  0  0999 V2000
  -17.3382  -18.8126    8.4356 O   0  0  0  0  0  0  0  0  0  0  0  0
  -16.2126  -18.0514    8.2221 C   0  0  0  0  0  0  0  0  0  0  0  0
  -16.1314  -16.6650    8.8305 C   0  0  0  0  0  0  0  0  0  0  0  0
  -15.1797  -18.5575    7.5822 C   0  0  0  0  0  0  0  0  0  0  0  0
  -14.8840  -15.9969    8.4991 C   0  0  0  0  0  0  0  0  0  0  0  0
  -17.3688  -16.0232    9.3550 C   0  0  0  0  0  0  0  0  0  0  0  0
  -13.9089  -16.4980    7.8522 C   0  0  0  0  0  0  0  0  0  0  0  0
  -13.9832  -17.8066    7.4077 C   0  0  0  0  0  0  0  0  0  0  0  0
  -15.2180  -20.0248    7.1423 C   0  0  0  0  0  0  0  0  0  0  0  0
  -17.1614  -16.0580   10.8746 C   0  0  0  0  0  0  0  0  0  0  0  0
  -17.4625  -14.6678    8.8589 C   0  0  0  0  0  0  0  0  0  0  0  0
  -15.2908  -20.1437    5.6162 C   0  0  0  0  0  0  0  0  0  0  0  0
  -13.9604  -20.7946    7.6635 C   0  0  0  0  0  0  0  0  0  0  0  0
  1  2  1  0  0  0  0
  2  3  1  0  0  0  0
  2  4  1  0  0  0  0
  3  5  1  0  0  0  0
  3  6  1  0  0  0  0
  4  8  1  0  0  0  0
  4  9  1  0  0  0  0
  5  7  1  0  0  0  0
  6 10  1  0  0  0  0
  6 11  1  0  0  0  0
  7  8  1  0  0  0  0
  9 12  1  0  0  0  0
  9 13  1  0  0  0  0
M  END
>  <Score>
0.249869

>  <Energy>
-6.589675

>  <Confidence>
0.750131

>  <Binding_Affinity>
-9.502615

>  <IC50_nM>
108.1

$$$$
