ml_pose_24
  PandaDock generated structure

 13 13  0  0  0  0  0  0  0  0999 V2000
  -17.5474  -18.0116    8.2367 O   0  0  0  0  0  0  0  0  0  0  0  0
  -16.2262  -17.7774    8.1385 C   0  0  0  0  0  0  0  0  0  0  0  0
  -15.7769  -16.9026    9.0881 C   0  0  0  0  0  0  0  0  0  0  0  0
  -15.4801  -18.4787    7.2934 C   0  0  0  0  0  0  0  0  0  0  0  0
  -14.3636  -16.5011    8.8657 C   0  0  0  0  0  0  0  0  0  0  0  0
  -16.5448  -16.1670    9.9703 C   0  0  0  0  0  0  0  0  0  0  0  0
  -13.5720  -17.2801    8.0683 C   0  0  0  0  0  0  0  0  0  0  0  0
  -14.1079  -18.2401    7.3186 C   0  0  0  0  0  0  0  0  0  0  0  0
  -16.0338  -19.5089    6.3748 C   0  0  0  0  0  0  0  0  0  0  0  0
  -16.4781  -16.6358   11.4752 C   0  0  0  0  0  0  0  0  0  0  0  0
  -16.3035  -14.6445   10.0822 C   0  0  0  0  0  0  0  0  0  0  0  0
  -16.3275  -19.0759    4.8998 C   0  0  0  0  0  0  0  0  0  0  0  0
  -15.3383  -20.8763    6.5281 C   0  0  0  0  0  0  0  0  0  0  0  0
  1  2  1  0  0  0  0
  2  3  1  0  0  0  0
  2  4  1  0  0  0  0
  3  5  1  0  0  0  0
  3  6  1  0  0  0  0
  4  8  1  0  0  0  0
  4  9  1  0  0  0  0
  5  7  1  0  0  0  0
  6 10  1  0  0  0  0
  6 11  1  0  0  0  0
  7  8  1  0  0  0  0
  9 12  1  0  0  0  0
  9 13  1  0  0  0  0
M  END
>  <Score>
0.175236

>  <Energy>
-5.761960

>  <Confidence>
0.824764

>  <Binding_Affinity>
-10.995275

>  <IC50_nM>
8.7

$$$$
