ml_pose_19
  PandaDock generated structure

 13 13  0  0  0  0  0  0  0  0999 V2000
  -15.4230  -18.0165    6.2746 O   0  0  0  0  0  0  0  0  0  0  0  0
  -15.5693  -17.7400    7.6014 C   0  0  0  0  0  0  0  0  0  0  0  0
  -14.8445  -16.8349    8.2889 C   0  0  0  0  0  0  0  0  0  0  0  0
  -16.5626  -18.6124    8.3114 C   0  0  0  0  0  0  0  0  0  0  0  0
  -15.1083  -16.7487    9.7151 C   0  0  0  0  0  0  0  0  0  0  0  0
  -13.8025  -15.8956    7.5032 C   0  0  0  0  0  0  0  0  0  0  0  0
  -15.9154  -17.4209   10.2357 C   0  0  0  0  0  0  0  0  0  0  0  0
  -16.8086  -18.3864    9.6700 C   0  0  0  0  0  0  0  0  0  0  0  0
  -17.2724  -19.5773    7.6455 C   0  0  0  0  0  0  0  0  0  0  0  0
  -14.5121  -14.5632    7.1616 C   0  0  0  0  0  0  0  0  0  0  0  0
  -12.6096  -15.7967    8.2638 C   0  0  0  0  0  0  0  0  0  0  0  0
  -16.8503  -21.0271    7.8757 C   0  0  0  0  0  0  0  0  0  0  0  0
  -18.8214  -19.4803    7.7932 C   0  0  0  0  0  0  0  0  0  0  0  0
  1  2  1  0  0  0  0
  2  3  1  0  0  0  0
  2  4  1  0  0  0  0
  3  5  1  0  0  0  0
  3  6  1  0  0  0  0
  4  8  1  0  0  0  0
  4  9  1  0  0  0  0
  5  7  1  0  0  0  0
  6 10  1  0  0  0  0
  6 11  1  0  0  0  0
  7  8  1  0  0  0  0
  9 12  1  0  0  0  0
  9 13  1  0  0  0  0
M  END
>  <Score>
0.147126

>  <Energy>
-6.401700

>  <Confidence>
0.852874

>  <Binding_Affinity>
-11.557478

>  <IC50_nM>
3.4

$$$$
