ml_pose_30
  PandaDock generated structure

 13 13  0  0  0  0  0  0  0  0999 V2000
  -16.0205  -19.0180    6.8822 O   0  0  0  0  0  0  0  0  0  0  0  0
  -15.7484  -18.1232    7.7551 C   0  0  0  0  0  0  0  0  0  0  0  0
  -15.7608  -16.7427    7.3862 C   0  0  0  0  0  0  0  0  0  0  0  0
  -15.5786  -18.4713    9.0216 C   0  0  0  0  0  0  0  0  0  0  0  0
  -15.5526  -15.7433    8.3239 C   0  0  0  0  0  0  0  0  0  0  0  0
  -15.9589  -16.4282    6.0242 C   0  0  0  0  0  0  0  0  0  0  0  0
  -15.2655  -16.1169    9.7362 C   0  0  0  0  0  0  0  0  0  0  0  0
  -15.4234  -17.5148   10.0764 C   0  0  0  0  0  0  0  0  0  0  0  0
  -15.6066  -19.9603    9.4738 C   0  0  0  0  0  0  0  0  0  0  0  0
  -17.3646  -15.9340    5.6263 C   0  0  0  0  0  0  0  0  0  0  0  0
  -15.0343  -15.3201    5.6382 C   0  0  0  0  0  0  0  0  0  0  0  0
  -14.2533  -20.5248    9.7835 C   0  0  0  0  0  0  0  0  0  0  0  0
  -16.5325  -20.2023   10.6124 C   0  0  0  0  0  0  0  0  0  0  0  0
  1  2  1  0  0  0  0
  2  3  1  0  0  0  0
  2  4  1  0  0  0  0
  3  5  1  0  0  0  0
  3  6  1  0  0  0  0
  4  8  1  0  0  0  0
  4  9  1  0  0  0  0
  5  7  1  0  0  0  0
  6 10  1  0  0  0  0
  6 11  1  0  0  0  0
  7  8  1  0  0  0  0
  9 12  1  0  0  0  0
  9 13  1  0  0  0  0
M  END
>  <Score>
0.152754

>  <Energy>
-6.259671

>  <Confidence>
0.847246

>  <Binding_Affinity>
-11.444921

>  <IC50_nM>
4.1

$$$$
