ml_pose_40
  PandaDock generated structure

 13 13  0  0  0  0  0  0  0  0999 V2000
  -15.7585  -19.0860    6.9147 O   0  0  0  0  0  0  0  0  0  0  0  0
  -15.7955  -18.1388    7.7573 C   0  0  0  0  0  0  0  0  0  0  0  0
  -16.7877  -17.2909    8.0052 C   0  0  0  0  0  0  0  0  0  0  0  0
  -14.5541  -18.0541    8.6340 C   0  0  0  0  0  0  0  0  0  0  0  0
  -16.7162  -16.2064    8.7550 C   0  0  0  0  0  0  0  0  0  0  0  0
  -17.9903  -17.3153    6.9191 C   0  0  0  0  0  0  0  0  0  0  0  0
  -15.5928  -16.0634    9.6147 C   0  0  0  0  0  0  0  0  0  0  0  0
  -14.5883  -16.9830    9.4965 C   0  0  0  0  0  0  0  0  0  0  0  0
  -13.4999  -18.9998    8.5563 C   0  0  0  0  0  0  0  0  0  0  0  0
  -19.1587  -17.9327    7.5472 C   0  0  0  0  0  0  0  0  0  0  0  0
  -18.3398  -16.0355    6.3956 C   0  0  0  0  0  0  0  0  0  0  0  0
  -12.2052  -18.4050    7.8597 C   0  0  0  0  0  0  0  0  0  0  0  0
  -13.1129  -19.5890    9.8847 C   0  0  0  0  0  0  0  0  0  0  0  0
  1  2  1  0  0  0  0
  2  3  1  0  0  0  0
  2  4  1  0  0  0  0
  3  5  1  0  0  0  0
  3  6  1  0  0  0  0
  4  8  1  0  0  0  0
  4  9  1  0  0  0  0
  5  7  1  0  0  0  0
  6 10  1  0  0  0  0
  6 11  1  0  0  0  0
  7  8  1  0  0  0  0
  9 12  1  0  0  0  0
  9 13  1  0  0  0  0
M  END
>  <Score>
0.169172

>  <Energy>
-8.577056

>  <Confidence>
0.830828

>  <Binding_Affinity>
-11.116570

>  <IC50_nM>
7.1

$$$$
