ml_pose_6
  PandaDock generated structure

 13 13  0  0  0  0  0  0  0  0999 V2000
  -16.7197  -19.2602    7.8223 O   0  0  0  0  0  0  0  0  0  0  0  0
  -16.0681  -18.1859    8.0031 C   0  0  0  0  0  0  0  0  0  0  0  0
  -15.2597  -17.6714    7.0764 C   0  0  0  0  0  0  0  0  0  0  0  0
  -16.0362  -17.5555    9.3304 C   0  0  0  0  0  0  0  0  0  0  0  0
  -14.5115  -16.5271    7.3013 C   0  0  0  0  0  0  0  0  0  0  0  0
  -15.2128  -18.3268    5.7576 C   0  0  0  0  0  0  0  0  0  0  0  0
  -14.3591  -15.8650    8.5569 C   0  0  0  0  0  0  0  0  0  0  0  0
  -15.2008  -16.4984    9.6186 C   0  0  0  0  0  0  0  0  0  0  0  0
  -16.9849  -18.2566   10.4898 C   0  0  0  0  0  0  0  0  0  0  0  0
  -16.1890  -17.5527    4.7326 C   0  0  0  0  0  0  0  0  0  0  0  0
  -13.8332  -18.3541    5.1651 C   0  0  0  0  0  0  0  0  0  0  0  0
  -16.0147  -18.8843   11.4189 C   0  0  0  0  0  0  0  0  0  0  0  0
  -17.7104  -17.1619   11.0669 C   0  0  0  0  0  0  0  0  0  0  0  0
  1  2  1  0  0  0  0
  2  3  1  0  0  0  0
  2  4  1  0  0  0  0
  3  5  1  0  0  0  0
  3  6  1  0  0  0  0
  4  8  1  0  0  0  0
  4  9  1  0  0  0  0
  5  7  1  0  0  0  0
  6 10  1  0  0  0  0
  6 11  1  0  0  0  0
  7  8  1  0  0  0  0
  9 12  1  0  0  0  0
  9 13  1  0  0  0  0
M  END
>  <Score>
0.184564

>  <Energy>
-7.518280

>  <Confidence>
0.815436

>  <Binding_Affinity>
-10.808718

>  <IC50_nM>
11.9

$$$$
