ml_pose_9
  PandaDock generated structure

 13 13  0  0  0  0  0  0  0  0999 V2000
  -16.0876  -15.9657    7.3882 O   0  0  0  0  0  0  0  0  0  0  0  0
  -15.8239  -17.2228    7.9542 C   0  0  0  0  0  0  0  0  0  0  0  0
  -16.6160  -17.6085    9.0955 C   0  0  0  0  0  0  0  0  0  0  0  0
  -14.8526  -17.9484    7.3749 C   0  0  0  0  0  0  0  0  0  0  0  0
  -16.1651  -18.9164    9.5943 C   0  0  0  0  0  0  0  0  0  0  0  0
  -17.5598  -16.6928    9.6788 C   0  0  0  0  0  0  0  0  0  0  0  0
  -15.1747  -19.6510    9.1450 C   0  0  0  0  0  0  0  0  0  0  0  0
  -14.6294  -19.1204    7.9458 C   0  0  0  0  0  0  0  0  0  0  0  0
  -14.0842  -17.4955    6.1299 C   0  0  0  0  0  0  0  0  0  0  0  0
  -18.9238  -17.0931    9.3418 C   0  0  0  0  0  0  0  0  0  0  0  0
  -17.3572  -16.8080   11.1635 C   0  0  0  0  0  0  0  0  0  0  0  0
  -12.7045  -17.0147    6.4675 C   0  0  0  0  0  0  0  0  0  0  0  0
  -14.1211  -18.5627    5.0607 C   0  0  0  0  0  0  0  0  0  0  0  0
  1  2  1  0  0  0  0
  2  3  1  0  0  0  0
  2  4  1  0  0  0  0
  3  5  1  0  0  0  0
  3  6  1  0  0  0  0
  4  8  1  0  0  0  0
  4  9  1  0  0  0  0
  5  7  1  0  0  0  0
  6 10  1  0  0  0  0
  6 11  1  0  0  0  0
  7  8  1  0  0  0  0
  9 12  1  0  0  0  0
  9 13  1  0  0  0  0
M  END
>  <Score>
0.318737

>  <Energy>
-7.102964

>  <Confidence>
0.681263

>  <Binding_Affinity>
-8.125252

>  <IC50_nM>
1105.4

$$$$
