ml_pose_4
  PandaDock generated structure

 13 13  0  0  0  0  0  0  0  0999 V2000
  -15.6084  -18.0823   10.0907 O   0  0  0  0  0  0  0  0  0  0  0  0
  -15.6632  -17.8516    8.7626 C   0  0  0  0  0  0  0  0  0  0  0  0
  -15.1025  -18.6556    7.8643 C   0  0  0  0  0  0  0  0  0  0  0  0
  -16.2975  -16.6842    8.2946 C   0  0  0  0  0  0  0  0  0  0  0  0
  -15.0586  -18.3843    6.5769 C   0  0  0  0  0  0  0  0  0  0  0  0
  -14.2455  -19.8852    8.3604 C   0  0  0  0  0  0  0  0  0  0  0  0
  -15.7977  -17.1714    5.9291 C   0  0  0  0  0  0  0  0  0  0  0  0
  -16.4308  -16.4679    6.9830 C   0  0  0  0  0  0  0  0  0  0  0  0
  -16.9940  -15.6864    9.3305 C   0  0  0  0  0  0  0  0  0  0  0  0
  -15.1639  -21.1994    8.1753 C   0  0  0  0  0  0  0  0  0  0  0  0
  -12.9007  -20.0178    7.5720 C   0  0  0  0  0  0  0  0  0  0  0  0
  -16.3335  -14.4453    9.4152 C   0  0  0  0  0  0  0  0  0  0  0  0
  -18.5037  -15.5687    8.9853 C   0  0  0  0  0  0  0  0  0  0  0  0
  1  2  1  0  0  0  0
  2  3  1  0  0  0  0
  2  4  1  0  0  0  0
  3  5  1  0  0  0  0
  3  6  1  0  0  0  0
  4  8  1  0  0  0  0
  4  9  1  0  0  0  0
  5  7  1  0  0  0  0
  6 10  1  0  0  0  0
  6 11  1  0  0  0  0
  7  8  1  0  0  0  0
  9 12  1  0  0  0  0
  9 13  1  0  0  0  0
M  END
>  <Score>
0.137381

>  <Energy>
-7.835425

>  <Confidence>
0.862619

>  <Binding_Affinity>
-11.752381

>  <IC50_nM>
2.4

$$$$
