ml_pose_2
  PandaDock generated structure

 13 13  0  0  0  0  0  0  0  0999 V2000
  -13.7419  -17.4843    8.5766 O   0  0  0  0  0  0  0  0  0  0  0  0
  -15.1217  -17.5570    8.2927 C   0  0  0  0  0  0  0  0  0  0  0  0
  -15.8270  -18.8564    8.5558 C   0  0  0  0  0  0  0  0  0  0  0  0
  -15.7932  -16.5722    7.8127 C   0  0  0  0  0  0  0  0  0  0  0  0
  -17.0765  -19.0153    8.3201 C   0  0  0  0  0  0  0  0  0  0  0  0
  -14.9691  -19.9815    9.2558 C   0  0  0  0  0  0  0  0  0  0  0  0
  -17.7849  -17.9821    7.6781 C   0  0  0  0  0  0  0  0  0  0  0  0
  -17.1695  -16.8258    7.4184 C   0  0  0  0  0  0  0  0  0  0  0  0
  -15.1746  -15.3194    7.4060 C   0  0  0  0  0  0  0  0  0  0  0  0
  -15.2296  -19.9866   10.7275 C   0  0  0  0  0  0  0  0  0  0  0  0
  -15.2766  -21.3217    8.5262 C   0  0  0  0  0  0  0  0  0  0  0  0
  -14.9564  -15.1059    5.8819 C   0  0  0  0  0  0  0  0  0  0  0  0
  -15.9790  -14.0917    7.8882 C   0  0  0  0  0  0  0  0  0  0  0  0
  1  2  1  0  0  0  0
  2  3  1  0  0  0  0
  2  4  1  0  0  0  0
  3  5  1  0  0  0  0
  3  6  1  0  0  0  0
  4  8  1  0  0  0  0
  4  9  1  0  0  0  0
  5  7  1  0  0  0  0
  6 10  1  0  0  0  0
  6 11  1  0  0  0  0
  7  8  1  0  0  0  0
  9 12  1  0  0  0  0
  9 13  1  0  0  0  0
M  END
>  <Score>
0.155786

>  <Energy>
-4.648689

>  <Confidence>
0.844214

>  <Binding_Affinity>
-11.384274

>  <IC50_nM>
4.5

$$$$
