ml_pose_26
  PandaDock generated structure

 13 13  0  0  0  0  0  0  0  0999 V2000
  -15.3116  -15.8332    7.7258 O   0  0  0  0  0  0  0  0  0  0  0  0
  -15.5724  -17.1083    8.1110 C   0  0  0  0  0  0  0  0  0  0  0  0
  -15.8055  -17.9681    7.0390 C   0  0  0  0  0  0  0  0  0  0  0  0
  -15.7201  -17.5755    9.4104 C   0  0  0  0  0  0  0  0  0  0  0  0
  -16.0689  -19.3785    7.3612 C   0  0  0  0  0  0  0  0  0  0  0  0
  -15.5472  -17.5839    5.5312 C   0  0  0  0  0  0  0  0  0  0  0  0
  -16.1461  -19.7680    8.6743 C   0  0  0  0  0  0  0  0  0  0  0  0
  -15.9918  -18.8697    9.6199 C   0  0  0  0  0  0  0  0  0  0  0  0
  -15.5255  -16.5675   10.5351 C   0  0  0  0  0  0  0  0  0  0  0  0
  -14.2635  -17.9566    5.0252 C   0  0  0  0  0  0  0  0  0  0  0  0
  -16.6860  -18.2620    4.7688 C   0  0  0  0  0  0  0  0  0  0  0  0
  -16.9488  -16.1615   11.0299 C   0  0  0  0  0  0  0  0  0  0  0  0
  -14.5126  -17.0672   11.5082 C   0  0  0  0  0  0  0  0  0  0  0  0
  1  2  1  0  0  0  0
  2  3  1  0  0  0  0
  2  4  1  0  0  0  0
  3  5  1  0  0  0  0
  3  6  1  0  0  0  0
  4  8  1  0  0  0  0
  4  9  1  0  0  0  0
  5  7  1  0  0  0  0
  6 10  1  0  0  0  0
  6 11  1  0  0  0  0
  7  8  1  0  0  0  0
  9 12  1  0  0  0  0
  9 13  1  0  0  0  0
M  END
>  <Score>
0.188840

>  <Energy>
-4.494623

>  <Confidence>
0.811160

>  <Binding_Affinity>
-10.723202

>  <IC50_nM>
13.8

$$$$
