ml_pose_19
  PandaDock generated structure

 13 13  0  0  0  0  0  0  0  0999 V2000
  -14.7081  -19.0282    7.1059 O   0  0  0  0  0  0  0  0  0  0  0  0
  -15.3777  -18.0825    7.8061 C   0  0  0  0  0  0  0  0  0  0  0  0
  -14.8561  -17.6483    9.0968 C   0  0  0  0  0  0  0  0  0  0  0  0
  -16.7155  -17.6491    7.4791 C   0  0  0  0  0  0  0  0  0  0  0  0
  -15.6308  -16.7944    9.9145 C   0  0  0  0  0  0  0  0  0  0  0  0
  -13.5161  -18.2915    9.5676 C   0  0  0  0  0  0  0  0  0  0  0  0
  -16.8963  -16.2918    9.4934 C   0  0  0  0  0  0  0  0  0  0  0  0
  -17.3242  -16.8022    8.1969 C   0  0  0  0  0  0  0  0  0  0  0  0
  -17.1962  -18.0314    5.9746 C   0  0  0  0  0  0  0  0  0  0  0  0
  -12.3753  -17.1340    9.2374 C   0  0  0  0  0  0  0  0  0  0  0  0
  -13.5379  -18.5867   10.9879 C   0  0  0  0  0  0  0  0  0  0  0  0
  -18.3894  -18.9933    6.1928 C   0  0  0  0  0  0  0  0  0  0  0  0
  -17.5763  -16.7665    5.2870 C   0  0  0  0  0  0  0  0  0  0  0  0
  1  2  1  0  0  0  0
  2  3  1  0  0  0  0
  2  4  1  0  0  0  0
  3  5  1  0  0  0  0
  3  6  1  0  0  0  0
  4  8  1  0  0  0  0
  4  9  1  0  0  0  0
  5  7  1  0  0  0  0
  6 10  1  0  0  0  0
  6 11  1  0  0  0  0
  7  8  1  0  0  0  0
  9 12  1  0  0  0  0
  9 13  1  0  0  0  0
M  END
>  <Score>
0.219081

>  <Energy>
-4.750325

>  <Confidence>
0.780919

>  <Binding_Affinity>
-10.118381

>  <IC50_nM>
38.2

$$$$
