ml_pose_24
  PandaDock generated structure

 13 13  0  0  0  0  0  0  0  0999 V2000
  -16.3760  -19.0247    6.8419 O   0  0  0  0  0  0  0  0  0  0  0  0
  -15.9348  -17.9424    7.7141 C   0  0  0  0  0  0  0  0  0  0  0  0
  -15.9626  -18.3946    9.1972 C   0  0  0  0  0  0  0  0  0  0  0  0
  -15.3530  -16.7333    7.3704 C   0  0  0  0  0  0  0  0  0  0  0  0
  -15.4430  -17.6034   10.0032 C   0  0  0  0  0  0  0  0  0  0  0  0
  -16.5648  -19.7497    9.6463 C   0  0  0  0  0  0  0  0  0  0  0  0
  -14.8912  -16.3480    9.6154 C   0  0  0  0  0  0  0  0  0  0  0  0
  -14.8699  -15.9974    8.3730 C   0  0  0  0  0  0  0  0  0  0  0  0
  -15.3202  -16.5104    5.9761 C   0  0  0  0  0  0  0  0  0  0  0  0
  -15.5486  -20.8099    9.8640 C   0  0  0  0  0  0  0  0  0  0  0  0
  -17.4949  -19.5774   10.7248 C   0  0  0  0  0  0  0  0  0  0  0  0
  -16.4407  -15.4796    5.5329 C   0  0  0  0  0  0  0  0  0  0  0  0
  -13.9003  -15.9292    5.4807 C   0  0  0  0  0  0  0  0  0  0  0  0
  1  2  1  0  0  0  0
  2  3  1  0  0  0  0
  2  4  1  0  0  0  0
  3  5  1  0  0  0  0
  3  6  1  0  0  0  0
  4  8  1  0  0  0  0
  4  9  1  0  0  0  0
  5  7  1  0  0  0  0
  6 10  1  0  0  0  0
  6 11  1  0  0  0  0
  7  8  1  0  0  0  0
  9 12  1  0  0  0  0
  9 13  1  0  0  0  0
M  END
>  <Score>
0.143092

>  <Energy>
-5.991052

>  <Confidence>
0.856908

>  <Binding_Affinity>
-11.638165

>  <IC50_nM>
2.9

$$$$
